  49 'GENROU' 1  6.816400  0.024500  1.397600  0.079600  5.211500  0.000000  2.497100
  2.366200  0.439600  0.760200  0.316500  0.238400  0.197100  0.629400  /
  49 'SEXS' 1  0.1  8  130  0.05  -4  5  /
  49 'TGOV1' 1  0.04  0.320319  1  0  2.1  6.30006  0  /
  50 'GENROU' 1  4.389000  0.051500  1.329300  0.076600  9.161100  0.000000  1.330300
  1.279900  0.176300  0.389200  0.129500  0.095400  0.171800  0.578800  /
  50 'SEXS' 1  0.1  10  100  0.05  -4  5  /
  50 'TGOV1' 1  0.05  0.5  1  0  2.50874  7.5263  0  /
  51 'GENROU' 1  8.748100  0.027200  0.850900  0.042600  8.600300  0.000000  1.451000
  1.392400  0.208000  0.213200  0.152000  0.112600  0.021900  0.278900  /
  51 'SEXS' 1  0.1  10  100  0.1  -4  5  /
  51 'TGOV1' 1  0.04  0.5  1  0  3  9.00009  0  /
  52 'GENROU' 1  8.403400  0.041400  1.364300  0.047800  4.962500  0.000000  1.919200
  1.828100  0.210100  0.568300  0.153500  0.113800  0.111400  0.457900  /
  52 'SEXS' 1  0.1  8  250  0.1  -4  5  /
  52 'TGOV1' 1  0.05  0.5  1  0  3  9.00009  0  /
  53 'GENROU' 1  8.131400  0.023100  1.486900  0.061700  5.513600  0.000000  1.888100
  1.799200  0.300100  0.455700  0.217500  0.162700  0.121000  0.477100  /
  53 'SEXS' 1  0.1  10  200  0.1  -4  5  /
  53 'TGOV1' 1  0.04  0.5  1  0  3  9.00009  0  /
  65 'GENROU' 1  4.988500  0.054700  0.516900  0.060200  6.289900  0.000000  1.324300
  1.274400  0.181900  0.464600  0.133500  0.098500  0.163400  0.562000  /
  65 'SEXS' 1  0.125  10  160  0.05  -4  5  /
  65 'TGOV1' 1  0.05  0.5  1  0  2.90965  9.69884  0  /
  67 'GENROU' 1  5.253300  0.040600  1.160500  0.058900  8.790800  0.000000  2.470400
  2.341300  0.405000  0.558100  0.291900  0.219600  0.089100  0.413400  /
  67 'SEXS' 1  0.1  10  100  0.1  -4  5  /
  67 'TGOV1' 1  0.04  0.5  1  0  2.1  7  0  /
  68 'GENROU' 1  7.722100  0.048500  1.016200  0.058500  4.084200  0.000000  1.266000
  1.220200  0.121300  0.229600  0.090400  0.065600  0.119800  0.474700  /
  68 'SEXS' 1  0.125  10  200  0.02  -4  5  /
  68 'TGOV1' 1  0.05  0.293992  1  0  2.1  7  0  /
  69 'GENROU' 1  5.045500  0.024300  1.327900  0.063200  1.463600  0.000000  2.065700
  1.964500  0.396400  0.367300  0.285800  0.214900  0.093900  0.422800  /
  69 'SEXS' 1  0.125  8  100  0.1  -4  5  /
  69 'TGOV1' 1  0.05  0.385075  1  0  3  9.00009  0  /
  70 'GENROU' 1  9.259500  0.048900  1.084100  0.044400  1.634200  0.000000  1.764200
  1.683900  0.255000  0.432700  0.185400  0.138100  0.030800  0.296600  /
  70 'SEXS' 1  0.125  10  100  0.05  -4  5  /
  70 'TGOV1' 1  0.05  0.205696  1  0  3  9.00009  0  /
  71 'GENROU' 1  9.822000  0.043600  0.968000  0.041900  8.801600  0.000000  1.492400
  1.430800  0.214300  0.381200  0.156500  0.116000  0.141700  0.518500  /
  71 'SEXS' 1  0.1  10  250  0.02  -4  5  /
  71 'TGOV1' 1  0.05  0.41585  1  0  3  9.00009  0  /
  72 'GENROU' 1  4.728300  0.042300  1.206700  0.059100  3.835400  0.000000  1.918700
  1.827700  0.241600  0.404800  0.175900  0.130900  0.111800  0.458700  /
  72 'SEXS' 1  0.125  8  140  0.05  -4  5  /
  72 'TGOV1' 1  0.05  0.5  1  0  3  9.00009  0  /
  73 'GENROU' 1  8.926200  0.021800  1.470800  0.072400  4.148600  0.000000  1.835800
  1.750500  0.335500  0.379800  0.242500  0.181800  0.199600  0.634200  /
  73 'SEXS' 1  0.1  10  100  0.1  -4  5  /
  73 'TGOV1' 1  0.05  0.5  1  0  3  9.00009  0  /
  76 'GENROU' 1  6.564900  0.027900  0.761100  0.058400  6.747100  0.000000  2.074200
  1.972500  0.375700  0.260200  0.208200  0.203700  0.084400  0.403800  /
  76 'SEXS' 1  0.1  10  200  0.02  -4  5  /
  76 'TGOV1' 1  0.05  0.117065  1  0  2.30814  6.92448  0  /
  77 'GENROU' 1  6.271700  0.045600  1.334900  0.078300  5.141600  0.000000  1.528200
  1.464200  0.193500  0.500500  0.141700  0.104800  0.122000  0.479200  /
  77 'SEXS' 1  0.1  10  200  0.05  -4  5  /
  77 'TGOV1' 1  0.05  0.237192  1  0  2.1  6.30006  0  /
  78 'GENROU' 1  6.227700  0.048300  0.536300  0.046900  4.317400  0.000000  1.506100
  1.443600  0.245300  0.501200  0.178500  0.132900  0.193500  0.622000  /
  78 'SEXS' 1  0.1  10  100  0.02  -4  5  /
  78 'TGOV1' 1  0.04  0.5  1  0  3  9.00009  0  /
  79 'GENROU' 1  4.415800  0.039200  1.280700  0.065000  5.302200  0.000000  1.695500
  1.619900  0.203800  0.284200  0.149000  0.110300  0.143100  0.521200  /
  79 'SEXS' 1  0.1  8  250  0.05  -4  5  /
  79 'TGOV1' 1  0.05  0.5  1  0  2.1  6.30006  0  /
  90 'GENROU' 1  4.574200  0.037400  0.829500  0.049300  4.420400  0.000000  1.655800
  1.583000  0.184700  0.286400  0.135500  0.100000  0.156300  0.547700  /
  90 'SEXS' 1  0.1  10  100  0.05  -4  5  /
  90 'TGOV1' 1  0.05  0.5  1  0  1.11874  3.35624  0  /
  91 'GENROU' 1  7.506300  0.047600  0.543100  0.059900  6.401800  0.000000  1.571700
  1.504700  0.216300  0.396400  0.157900  0.117100  0.054500  0.344100  /
  91 'SEXS' 1  0.125  8  190  0.05  -4  5  /
  91 'TGOV1' 1  0.05  0.5  1  0  2.1  6.30006  0  /
  92 'GENROU' 1  9.950400  0.023400  1.066500  0.076800  7.420900  0.000000  2.436500
  2.309800  0.466900  0.442000  0.335900  0.253200  0.123300  0.481800  /
  92 'SEXS' 1  0.125  8  180  0.05  -4  5  /
  92 'TGOV1' 1  0.04  0.148741  1  0  2.1  6.30006  0  /
  94 'GENROU' 1  7.363300  0.059300  1.229800  0.049500  3.262100  0.000000  1.836700
  1.751400  0.212400  0.460700  0.155200  0.115000  0.126200  0.487400  /
  94 'SEXS' 1  0.1  10  200  0.05  -4  5  /
  94 'TGOV1' 1  0.05  0.5  1  0  3  9.00009  0  /
  104 'GENROU' 1  5.669400  0.026900  0.615700  0.050800  2.399500  0.000000  1.333200
  1.282700  0.128900  0.470900  0.095900  0.069700  0.176200  0.587400  /
  104 'SEXS' 1  0.1  10  200  0.1  -4  5  /
  104 'TGOV1' 1  0.04  0.5  1  0  1.31872  4.39573  0  /
  105 'GENROU' 1  5.372700  0.057000  0.845900  0.051400  1.501400  0.000000  1.663800
  1.590500  0.318300  0.337700  0.230300  0.172500  0.050900  0.336900  /
  105 'SEXS' 1  0.125  10  100  0.02  -4  5  /
  105 'TGOV1' 1  0.05  0.449652  1  0  1.91765  6.39218  0  /
  114 'GENROU' 1  6.074200  0.047600  1.034200  0.064300  8.916000  0.000000  1.460500
  1.401200  0.265300  0.461300  0.192700  0.143800  0.022800  0.280700  /
  114 'SEXS' 1  0.1  8  200  0.02  -4  5  /
  114 'TGOV1' 1  0.05  0.5  1  0  2.1  7  0  /
  115 'GENROU' 1  4.460200  0.021700  1.312400  0.048400  2.726800  0.000000  1.176600
  1.136900  0.212700  0.347100  0.155300  0.115200  0.138900  0.512900  /
  115 'SEXS' 1  0.125  10  250  0.1  -4  5  /
  115 'TGOV1' 1  0.05  0.5  1  0  2.1  6.30006  0  /
  125 'GENROU' 1  6.221200  0.035900  1.244100  0.061200  2.187500  0.000000  2.145800
  2.039100  0.364300  0.519000  0.263000  0.197500  0.035600  0.306200  /
  125 'SEXS' 1  0.1  10  200  0.1  -4  5  /
  125 'TGOV1' 1  0.05  0.5  1  0  2.1  6.30006  0  /
  126 'GENROU' 1  7.416700  0.022100  1.148100  0.054600  7.299700  0.000000  1.279800
  1.233000  0.154600  0.282700  0.114100  0.083700  0.060300  0.355700  /
  126 'SEXS' 1  0.1  10  200  0.02  -4  5  /
  126 'TGOV1' 1  0.05  0.5  1  0  3  9.00009  0  /
  127 'GENROU' 1  8.343200  0.056900  1.404200  0.074600  3.385100  0.000000  1.248800
  1.204100  0.121500  0.210600  0.090600  0.065700  0.196800  0.628700  /
  127 'SEXS' 1  0.1  8  110  0.05  -4  5  /
  127 'TGOV1' 1  0.05  0.183088  1  0  0.519888  1.55968  0  /
  135 'GENROU' 1  8.707700  0.059600  0.746800  0.063000  3.232900  0.000000  2.095700
  1.992500  0.351500  0.654000  0.253900  0.190600  0.067900  0.370900  /
  135 'SEXS' 1  0.1  10  150  0.02  -4  5  /
  135 'TGOV1' 1  0.05  0.363739  1  0  3  9.00009  0  /
  136 'GENROU' 1  5.275700  0.040900  0.977900  0.056200  3.215600  0.000000  1.917500
  1.826600  0.278700  0.554200  0.202200  0.151000  0.120400  0.475900  /
  136 'SEXS' 1  0.1  10  250  0.02  -4  5  /
  136 'TGOV1' 1  0.05  0.5  1  0  1.71788  5.15369  0  /
  147 'GENROU' 1  8.831000  0.055100  0.999700  0.041700  3.979200  0.000000  2.443800
  2.316600  0.485800  0.407700  0.349300  0.263500  0.196800  0.628800  /
  147 'SEXS' 1  0.1  8  250  0.1  -4  5  /
  147 'TGOV1' 1  0.05  0.5  1  0  3  9.00009  0  /
  151 'GENROU' 1  5.414700  0.026000  1.322300  0.061300  5.358900  0.000000  1.243800
  1.199400  0.202800  0.203700  0.148300  0.109800  0.080400  0.395900  /
  151 'SEXS' 1  0.1  10  100  0.05  -4  5  /
  151 'TGOV1' 1  0.05  0.5  1  0  0.719882  2.39961  0  /
  152 'GENROU' 1  7.908900  0.051400  1.254600  0.042800  5.857600  0.000000  2.317900
  2.199300  0.317200  0.365500  0.229600  0.171900  0.171200  0.577400  /
  152 'SEXS' 1  0.1  8  250  0.02  -4  5  /
  152 'TGOV1' 1  0.04  0.5  1  0  3  9.00009  0  /
  153 'GENROU' 1  9.430300  0.050400  0.819600  0.043400  6.292700  0.000000  1.760000
  1.680000  0.306700  0.529700  0.222100  0.166200  0.128600  0.492300  /
  153 'SEXS' 1  0.125  10  100  0.02  -4  5  /
  153 'TGOV1' 1  0.05  0.5  1  0  2.1  6.30006  0  /
  154 'GENROU' 1  5.595600  0.047600  1.394000  0.072700  8.441900  0.000000  1.362000
  1.309500  0.269900  0.316400  0.196000  0.146300  0.055000  0.345100  /
  154 'SEXS' 1  0.125  10  120  0.05  -4  5  /
  154 'TGOV1' 1  0.04  0.5  1  0  2.1  7  0  /
  155 'GENROU' 1  4.200600  0.045800  0.596500  0.051700  4.497500  0.000000  1.848700
  1.762600  0.204700  0.293900  0.149600  0.110800  0.076900  0.388800  /
  155 'SEXS' 1  0.1  10  170  0.1  -4  5  /
  155 'TGOV1' 1  0.05  0.5  1  0  2.70961  8.12891  0  /
  161 'GENROU' 1  8.871700  0.056800  1.268300  0.053500  2.454300  0.000000  1.957800
  1.864100  0.350000  0.451500  0.252900  0.189800  0.154100  0.543200  /
  161 'SEXS' 1  0.1  10  100  0.02  -4  5  /
  161 'TGOV1' 1  0.04  0.116389  1  0  2.1  6.30006  0  /
  164 'GENROU' 1  9.144000  0.056200  1.347100  0.060300  2.608000  0.000000  1.424300
  1.367500  0.166500  0.286500  0.122600  0.090100  0.106000  0.447100  /
  164 'SEXS' 1  0.1  8  100  0.02  -4  5  /
  164 'TGOV1' 1  0.05  0.5  1  0  3  9.00009  0  /
  165 'GENROU' 1  8.543500  0.046300  1.310700  0.057600  6.818300  0.000000  1.464000
  1.404500  0.280300  0.468600  0.203400  0.151900  0.153400  0.542000  /
  165 'SEXS' 1  0.1  10  100  0.02  -4  5  /
  165 'TGOV1' 1  0.05  0.5  1  0  2.1  7  0  /
  166 'GENROU' 1  5.568800  0.058700  0.830400  0.055000  9.320000  0.000000  1.306000
  1.257300  0.190200  0.408700  0.139400  0.103000  0.063700  0.362500  /
  166 'SEXS' 1  0.125  10  100  0.02  -4  5  /
  166 'TGOV1' 1  0.04  0.5  1  0  3  9.00009  0  /
  167 'GENROU' 1  8.677500  0.052400  0.796800  0.071600  9.308000  0.000000  2.026100
  1.927700  0.391400  0.446600  0.282300  0.212200  0.169100  0.573200  /
  167 'SEXS' 1  0.125  10  100  0.05  -4  5  /
  167 'TGOV1' 1  0.05  0.5  1  0  2.1  6.30006  0  /
  168 'GENROU' 1  5.783100  0.039100  1.432600  0.073400  1.802700  0.000000  1.430000
  1.372800  0.163700  0.222700  0.120500  0.088600  0.170300  0.575700  /
  168 'SEXS' 1  0.1  8  100  0.05  -4  5  /
  168 'TGOV1' 1  0.04  0.487654  1  0  2.1  7  0  /
  169 'GENROU' 1  9.503500  0.033800  1.318200  0.079000  1.095800  0.000000  2.432400
  2.305900  0.270900  0.468800  0.196700  0.146800  0.080200  0.395500  /
  169 'SEXS' 1  0.125  10  100  0.05  -4  5  /
  169 'TGOV1' 1  0.05  0.5  1  0  2.1  6.30006  0  /
  170 'GENROU' 1  7.016000  0.022100  0.749000  0.074400  3.401500  0.000000  1.511000
  1.448200  0.151400  0.439400  0.111900  0.081900  0.049200  0.333500  /
  170 'SEXS' 1  0.125  10  100  0.05  -4  5  /
  170 'TGOV1' 1  0.05  0.5  1  0  1.51816  5.06054  0  /
  182 'GENROU' 1  4.595400  0.048700  1.046100  0.076700  3.971900  0.000000  1.514500
  1.451400  0.178500  0.457300  0.131100  0.096600  0.189100  0.613300  /
  182 'SEXS' 1  0.125  10  100  0.1  -4  5  /
  182 'TGOV1' 1  0.05  0.5  1  0  3  9.00009  0  /
  183 'GENROU' 1  7.037600  0.050100  1.058900  0.071000  4.083200  0.000000  1.656400
  1.583600  0.188900  0.230400  0.138500  0.102300  0.132100  0.499400  /
  183 'SEXS' 1  0.1  10  250  0.02  -4  5  /
  183 'TGOV1' 1  0.04  0.5  1  0  3  10  0  /
  189 'GENROU' 1  9.648100  0.045100  0.546400  0.064600  3.401700  0.000000  1.784000
  1.702300  0.206900  0.357500  0.151200  0.112000  0.083600  0.402300  /
  189 'SEXS' 1  0.125  10  250  0.02  -4  5  /
  189 'TGOV1' 1  0.05  0.278892  1  0  2.50944  7.52841  0  /
  196 'GENROU' 1  9.596800  0.030600  1.364600  0.042200  2.068700  0.000000  1.553400
  1.487700  0.243600  0.221800  0.177300  0.132000  0.188800  0.612700  /
  196 'SEXS' 1  0.1  8  200  0.02  -4  5  /
  196 'TGOV1' 1  0.05  0.5  1  0  2.1  6.30006  0  /
  197 'GENROU' 1  9.596800  0.030600  1.364600  0.042200  2.068700  0.000000  1.553400
  1.487700  0.243600  0.221800  0.177300  0.132000  0.188800  0.612700  /
  197 'SEXS' 1  0.1  10  250  0.1  -4  5  /
  197 'TGOV1' 1  0.04  0.5  1  0  0.918892  2.7567  0  /

8,'COMPLOAD',1 ,20.0,20.0,20.0,20.0, 30.0,60.0,0,0.078,0.065,2.67,0.044,0.049,999,999,0,0,0,0,0.0,1.0,1.069,0.7,20,2,1.0,20,0.0,/USRWHT
10,'COMPLOAD',1 ,20.0,20.0,20.0,20.0, 30.0,60.0,0,0.078,0.065,2.67,0.044,0.049,999,999,0,0,0,0,0.0,1.0,1.069,0.7,20,2,1.0,20,0.0,/USRWHT
16,'COMPLOAD',1 ,20.0,20.0,20.0,20.0, 30.0,60.0,0,0.078,0.065,2.67,0.044,0.049,999,999,0,0,0,0,0.0,1.0,1.069,0.7,20,2,1.0,20,0.0,/USRWHT
30,'COMPLOAD',1 ,20.0,20.0,20.0,20.0, 30.0,60.0,0,0.078,0.065,2.67,0.044,0.049,999,999,0,0,0,0,0.0,1.0,1.069,0.7,20,2,1.0,20,0.0,/USRWHT
35,'COMPLOAD',1 ,20.0,20.0,20.0,20.0, 30.0,60.0,0,0.078,0.065,2.67,0.044,0.049,999,999,0,0,0,0,0.0,1.0,1.069,0.7,20,2,1.0,20,0.0,/USRWHT
38,'COMPLOAD',1 ,20.0,20.0,20.0,20.0, 30.0,60.0,0,0.078,0.065,2.67,0.044,0.049,999,999,0,0,0,0,0.0,1.0,1.069,0.7,20,2,1.0,20,0.0,/USRWHT
41,'COMPLOAD',1 ,20.0,20.0,20.0,20.0, 30.0,60.0,0,0.078,0.065,2.67,0.044,0.049,999,999,0,0,0,0,0.0,1.0,1.069,0.7,20,2,1.0,20,0.0,/USRWHT
61,'COMPLOAD',1 ,20.0,20.0,20.0,20.0, 30.0,60.0,0,0.078,0.065,2.67,0.044,0.049,999,999,0,0,0,0,0.0,1.0,1.069,0.7,20,2,1.0,20,0.0,/USRWHT
62,'COMPLOAD',1 ,20.0,20.0,20.0,20.0, 30.0,60.0,0,0.078,0.065,2.67,0.044,0.049,999,999,0,0,0,0,0.0,1.0,1.069,0.7,20,2,1.0,20,0.0,/USRWHT
88,'COMPLOAD',1 ,20.0,20.0,20.0,20.0, 30.0,60.0,0,0.078,0.065,2.67,0.044,0.049,999,999,0,0,0,0,0.0,1.0,1.069,0.7,20,2,1.0,20,0.0,/USRWHT
89,'COMPLOAD',1 ,20.0,20.0,20.0,20.0, 30.0,60.0,0,0.078,0.065,2.67,0.044,0.049,999,999,0,0,0,0,0.0,1.0,1.069,0.7,20,2,1.0,20,0.0,/USRWHT
100,'COMPLOAD',1 ,20.0,20.0,20.0,20.0, 30.0,60.0,0,0.078,0.065,2.67,0.044,0.049,999,999,0,0,0,0,0.0,1.0,1.069,0.7,20,2,1.0,20,0.0,/USRWHT
107,'COMPLOAD',1 ,20.0,20.0,20.0,20.0, 30.0,60.0,0,0.078,0.065,2.67,0.044,0.049,999,999,0,0,0,0,0.0,1.0,1.069,0.7,20,2,1.0,20,0.0,/USRWHT
117,'COMPLOAD',1 ,20.0,20.0,20.0,20.0, 30.0,60.0,0,0.078,0.065,2.67,0.044,0.049,999,999,0,0,0,0,0.0,1.0,1.069,0.7,20,2,1.0,20,0.0,/USRWHT
129,'COMPLOAD',1 ,20.0,20.0,20.0,20.0, 30.0,60.0,0,0.078,0.065,2.67,0.044,0.049,999,999,0,0,0,0,0.0,1.0,1.069,0.7,20,2,1.0,20,0.0,/USRWHT
131,'COMPLOAD',1 ,20.0,20.0,20.0,20.0, 30.0,60.0,0,0.078,0.065,2.67,0.044,0.049,999,999,0,0,0,0,0.0,1.0,1.069,0.7,20,2,1.0,20,0.0,/USRWHT
132,'COMPLOAD',1 ,20.0,20.0,20.0,20.0, 30.0,60.0,0,0.078,0.065,2.67,0.044,0.049,999,999,0,0,0,0,0.0,1.0,1.069,0.7,20,2,1.0,20,0.0,/USRWHT
142,'COMPLOAD',1 ,20.0,20.0,20.0,20.0, 30.0,60.0,0,0.078,0.065,2.67,0.044,0.049,999,999,0,0,0,0,0.0,1.0,1.069,0.7,20,2,1.0,20,0.0,/USRWHT
143,'COMPLOAD',1 ,20.0,20.0,20.0,20.0, 30.0,60.0,0,0.078,0.065,2.67,0.044,0.049,999,999,0,0,0,0,0.0,1.0,1.069,0.7,20,2,1.0,20,0.0,/USRWHT
148,'COMPLOAD',1 ,20.0,20.0,20.0,20.0, 30.0,60.0,0,0.078,0.065,2.67,0.044,0.049,999,999,0,0,0,0,0.0,1.0,1.069,0.7,20,2,1.0,20,0.0,/USRWHT
163,'COMPLOAD',1 ,20.0,20.0,20.0,20.0, 30.0,60.0,0,0.078,0.065,2.67,0.044,0.049,999,999,0,0,0,0,0.0,1.0,1.069,0.7,20,2,1.0,20,0.0,/USRWHT
179,'COMPLOAD',1 ,20.0,20.0,20.0,20.0, 30.0,60.0,0,0.078,0.065,2.67,0.044,0.049,999,999,0,0,0,0,0.0,1.0,1.069,0.7,20,2,1.0,20,0.0,/USRWHT
181,'COMPLOAD',1 ,20.0,20.0,20.0,20.0, 30.0,60.0,0,0.078,0.065,2.67,0.044,0.049,999,999,0,0,0,0,0.0,1.0,1.069,0.7,20,2,1.0,20,0.0,/USRWHT
192,'COMPLOAD',1 ,20.0,20.0,20.0,20.0, 30.0,60.0,0,0.078,0.065,2.67,0.044,0.049,999,999,0,0,0,0,0.0,1.0,1.069,0.7,20,2,1.0,20,0.0,/USRWHT
193,'COMPLOAD',1 ,20.0,20.0,20.0,20.0, 30.0,60.0,0,0.078,0.065,2.67,0.044,0.049,999,999,0,0,0,0,0.0,1.0,1.069,0.7,20,2,1.0,20,0.0,/USRWHT
194,'COMPLOAD',1 ,20.0,20.0,20.0,20.0, 30.0,60.0,0,0.078,0.065,2.67,0.044,0.049,999,999,0,0,0,0,0.0,1.0,1.069,0.7,20,2,1.0,20,0.0,/USRWHT
