40,'GENROU',1 ,  4.2,0.032,0.565,0.062,13.67974,2,2.11,2.02,0.28,0.29,0.215,0.155,0.0,0.0,/USRWHT
41,'GENROU',1 ,  5.69,0.041,0.5,0.144,22.059865,2,2.183,2.157,0.413,0.41,0.339,0.246,0.0,0.0,/USRWHT
42,'GENROU',1 ,  5.69,0.041,0.5,0.144,22.059865,2,2.183,2.157,0.413,0.415,0.339,0.246,0.0,0.0,/USRWHT
43,'GENROU',1 ,  5.69,0.041,0.5,0.144,22.059865,2,2.183,2.157,0.413,0.415,0.339,0.246,0.0,0.0,/USRWHT
44,'GENROU',1 ,  5.69,0.041,0.5,0.144,22.059865,2,2.183,2.157,0.413,0.415,0.339,0.246,0.0,0.0,/USRWHT
45,'GENROU',1 ,  5.69,0.041,0.5,0.144,22.059865,2,2.183,2.157,0.413,0.415,0.339,0.246,0.0,0.0,/USRWHT
46,'GENROU',1 ,  5.69,0.041,0.5,0.144,22.059865,2,2.183,2.157,0.413,0.415,0.339,0.246,0.0,0.0,/USRWHT
47,'GENROU',1 ,  5.69,0.041,0.5,0.144,22.059865,2,2.183,2.157,0.413,0.415,0.339,0.246,0.0,0.0,/USRWHT
48,'GENROU',1 ,  6,0.04,0.9,0.04,22.649282,2,2.04,1.96,0.266,0.262,0.193,0.154,0.0,0.0,/USRWHT
49,'GENROU',1 ,  6,0.04,0.9,0.04,22.649282,2,2.04,1.96,0.266,0.262,0.193,0.154,0.0,0.0,/USRWHT

40,'IEEET1',1 ,0.02, 20, 0.2, 5.0, -5.0, 1.0, 0.314, 0.0635, 0.35, 0, 1.0, 0.0185, 2.0, 0.0874,/USRWHT
41,'IEEET1',1 ,0.02, 20, 0.2, 5.0, -5.0, 1.0, 0.314, 0.0635, 0.35, 0, 1.0, 0.0185, 2.0, 0.0874,/USRWHT
42,'IEEET1',1 ,0.02, 20, 0.2, 5.0, -5.0, 1.0, 0.314, 0.0635, 0.35, 0, 1.0, 0.0185, 2.0, 0.0874,/USRWHT
43,'IEEET1',1 ,0.02, 20, 0.2, 5.0, -5.0, 1.0, 0.314, 0.0635, 0.35, 0, 1.0, 0.0185, 2.0, 0.0874,/USRWHT
44,'IEEET1',1 ,0.02, 20, 0.2, 5.0, -5.0, 1.0, 0.314, 0.0635, 0.35, 0, 1.0, 0.0185, 2.0, 0.0874,/USRWHT
45,'IEEET1',1 ,0.02, 20, 0.2, 5.0, -5.0, 1.0, 0.314, 0.0635, 0.35, 0, 1.0, 0.0185, 2.0, 0.0874,/USRWHT
46,'IEEET1',1 ,0.02, 20, 0.2, 5.0, -5.0, 1.0, 0.314, 0.0635, 0.35, 0, 1.0, 0.0185, 2.0, 0.0874,/USRWHT
47,'IEEET1',1 ,0.02, 20, 0.2, 5.0, -5.0, 1.0, 0.314, 0.0635, 0.35, 0, 1.0, 0.0185, 2.0, 0.0874,/USRWHT
48,'IEEET1',1 ,0.02, 20, 0.2, 5.0, -5.0, 1.0, 0.314, 0.0635, 0.35, 0, 1.0, 0.0185, 2.0, 0.0874,/USRWHT
49,'IEEET1',1 ,0.02, 20, 0.2, 5.0, -5.0, 1.0, 0.314, 0.0635, 0.35, 0, 1.0, 0.0185, 2.0, 0.0874,/USRWHT


