function mpc = case_ACTIVSg200
%CASE_ACTIVSG200

%% MATPOWER Case Format : Version 2
mpc.version = '2';

%%-----  Power Flow Data  -----%%
%% system MVA base
mpc.baseMVA = 100;

%% bus data
%	bus_i	type	Pd	Qd	Gs	Bs	area	Vm	Va	baseKV	zone	Vmax	Vmin	lam_P	lam_Q	mu_Vmax	mu_Vmin
mpc.bus = [
	1	1	0	0	0	0	1	1.01916363	-7.08600773	115	2	1.1	0.9	6.8700	0.0000	0.0000	0.0000;
	2	1	7.39	2.1	0	0	1	1.01904599	-7.09884079	115	2	1.1	0.9	6.8700	0.0000	0.0000	0.0000;
	3	1	0	0	0	0	1	1.02999962	-10.029999	115	4	1.1	0.9	6.8700	0.0000	0.0000	0.0000;
	4	1	1.7	0.48	0	0	1	1.02997477	-10.0328831	115	4	1.1	0.9	6.8700	0.0000	0.0000	0.0000;
	5	1	0	0	0	0	1	1.03722974	-3.54629276	115	6	1.1	0.9	6.8700	0.0000	0.0000	0.0000;
	6	1	7.95	2.26	0	0	1	1.0371038	-3.55958758	115	6	1.1	0.9	6.8700	0.0000	0.0000	0.0000;
	7	1	0	0	0	0	1	1.01311034	-7.79401769	115	2	1.1	0.9	6.8700	0.0000	0.0000	0.0000;
	8	1	23.74	6.77	0	0	1	1.0127483	-7.83389739	115	2	1.1	0.9	6.8700	0.0000	0.0000	0.0000;
	9	1	0	0	0	0	1	1.01578675	-7.47255946	115	2	1.1	0.9	6.8700	0.0000	0.0000	0.0000;
	10	1	42.68	12.16	0	0	1	1.01506429	-7.56269003	115	2	1.1	0.9	6.8700	0.0000	0.0000	0.0000;
	11	1	0	0	0	0	1	1.0462662	-7.60410243	115	4	1.1	0.9	6.8700	0.0000	0.0000	0.0000;
	12	1	0.3	0.09	0	0	1	1.04626163	-7.60463204	115	4	1.1	0.9	6.8700	0.0000	0.0000	0.0000;
	13	1	2.52	0.72	0	0	1	1.04622647	-7.60862558	115	4	1.1	0.9	6.8700	0.0000	0.0000	0.0000;
	14	1	0	0	0	0	1	1.04455953	-6.24559702	230	4	1.1	0.9	6.8700	0.0000	0.0000	0.0000;
	15	1	0	0	0	30	1	1.04901382	-7.10547161	115	4	1.1	0.9	6.8700	0.0000	0.0000	0.0000;
	16	1	44.76	12.76	0	0	1	1.04838744	-7.17641622	115	4	1.1	0.9	6.8700	0.0000	0.0000	0.0000;
	17	1	0	0	0	0	1	1.02479653	-8.30607803	115	4	1.1	0.9	6.8700	0.0000	0.0000	0.0000;
	18	1	0.71	0.2	0	0	1	1.02478539	-8.3075439	115	4	1.1	0.9	6.8700	0.0000	0.0000	0.0000;
	19	1	0.77	0.22	0	0	1	1.02478606	-8.30730979	115	4	1.1	0.9	6.8700	0.0000	0.0000	0.0000;
	20	1	1.13	0.32	0	0	1	1.02477924	-8.30802775	115	4	1.1	0.9	6.8700	0.0000	0.0000	0.0000;
	21	1	4.61	1.31	0	0	1	1.02471826	-8.31554498	115	4	1.1	0.9	6.8700	0.0000	0.0000	0.0000;
	22	1	0	0	0	0	1	1.044468	-8.02116587	115	4	1.1	0.9	6.8700	0.0000	0.0000	0.0000;
	23	1	1.41	0.4	0	0	1	1.04444735	-8.02342254	115	4	1.1	0.9	6.8700	0.0000	0.0000	0.0000;
	24	1	2.4	0.68	0	0	1	1.04443224	-8.02478659	115	4	1.1	0.9	6.8700	0.0000	0.0000	0.0000;
	25	1	0	0	0	0	1	1.04239515	-4.00297757	115	6	1.1	0.9	6.8700	0.0000	0.0000	0.0000;
	26	1	1.35	0.39	0	0	1	1.04237576	-4.00503827	115	6	1.1	0.9	6.8700	0.0000	0.0000	0.0000;
	27	1	0	0	0	0	1	1.04550657	-7.97430501	115	4	1.1	0.9	6.8700	0.0000	0.0000	0.0000;
	28	1	2.33	0.67	0	0	1	1.04546808	-7.9789403	115	4	1.1	0.9	6.8700	0.0000	0.0000	0.0000;
	29	1	0	0	0	0	1	1.0181786	-7.05497558	115	2	1.1	0.9	6.8700	0.0000	0.0000	0.0000;
	30	1	59.09	16.84	0	0	1	1.01725573	-7.15085535	115	2	1.1	0.9	6.8700	0.0000	0.0000	0.0000;
	31	1	0	0	0	0	1	1.02158677	-5.83287135	115	7	1.1	0.9	6.8700	0.0000	0.0000	0.0000;
	32	1	0.51	0.15	0	0	1	1.02157773	-5.83390392	115	7	1.1	0.9	6.8700	0.0000	0.0000	0.0000;
	33	1	6.44	1.84	0	0	1	1.02148791	-5.84520508	115	7	1.1	0.9	6.8700	0.0000	0.0000	0.0000;
	34	1	0	0	0	0	1	1.03264132	-9.32700297	115	4	1.1	0.9	6.8700	0.0000	0.0000	0.0000;
	35	1	20.76	5.92	0	0	1	1.03231475	-9.36616807	115	4	1.1	0.9	6.8700	0.0000	0.0000	0.0000;
	36	1	0	0	0	0	1	1.02807076	-6.1793044	115	7	1.1	0.9	6.8700	0.0000	0.0000	0.0000;
	37	1	3.57	1.02	0	0	1	1.02801856	-6.18544011	115	7	1.1	0.9	6.8700	0.0000	0.0000	0.0000;
	38	1	29.81	8.5	0	0	1	1.02758552	-6.2329799	115	7	1.1	0.9	6.8700	0.0000	0.0000	0.0000;
	39	1	7.41	2.11	0	0	1	1.02456486	-10.4939742	115	4	1.1	0.9	6.8700	0.0000	0.0000	0.0000;
	40	1	2.04	0.58	0	0	1	1.02453724	-10.4972694	115	4	1.1	0.9	6.8700	0.0000	0.0000	0.0000;
	41	1	38.34	10.93	0	0	1	1.04600933	-7.96016354	115	5	1.1	0.9	6.8700	0.0000	0.0000	0.0000;
	42	1	10.62	3.03	0	0	1	1.03013747	-11.0708699	115	4	1.1	0.9	6.8700	0.0000	0.0000	0.0000;
	43	1	2.09	0.59	0	0	1	1.01726389	-6.40157417	115	2	1.1	0.9	6.8700	0.0000	0.0000	0.0000;
	44	1	4.15	1.18	0	0	1	1.02801163	-10.3997586	115	4	1.1	0.9	6.8700	0.0000	0.0000	0.0000;
	45	1	0	0	0	0	1	1.03846674	-2.06935753	230	7	1.1	0.9	6.8700	0.0000	0.0000	0.0000;
	46	1	6.34	1.81	0	0	1	1.03782767	-2.8900814	115	7	1.1	0.9	6.8700	0.0000	0.0000	0.0000;
	47	1	1.54	0.44	0	0	1	1.03917013	-8.19555351	115	4	1.1	0.9	6.8700	0.0000	0.0000	0.0000;
	48	1	1.82	0.52	0	0	1	1.03511818	-4.17510549	115	6	1.1	0.9	6.8700	0.0000	0.0000	0.0000;
	49	2	0	0	0	0	1	1.04	-3.80285673	13.8	6	1.1	0.9	6.8700	0.0000	0.0000	0.0000;
	50	2	0	0	0	0	1	1.04	-3.89626761	13.8	6	1.1	0.9	6.8700	0.0000	0.0000	0.0000;
	51	2	0	0	0	0	1	1.04	-3.74277586	13.8	6	1.1	0.9	6.8700	0.0000	0.0000	0.0000;
	52	2	0	0	0	0	1	1.04	-3.91476727	13.8	6	1.1	0.9	6.8700	0.0000	0.0000	0.0000;
	53	2	0	0	0	0	1	1.04	-3.34945677	13.8	6	1.1	0.9	6.8700	0.0000	0.0000	0.0000;
	54	1	2.66	0.76	0	0	1	1.03741255	-8.49384375	115	4	1.1	0.9	6.8700	0.0000	0.0000	0.0000;
	55	1	0	0	0	0	1	1.03712195	-2.29963842	230	7	1.1	0.9	6.8700	0.0000	0.0000	0.0000;
	56	1	1.31	0.37	0	0	1	1.03648194	-2.73749556	115	7	1.1	0.9	6.8700	0.0000	0.0000	0.0000;
	57	1	2.82	0.8	0	0	1	1.0280942	-10.4500791	115	4	1.1	0.9	6.8700	0.0000	0.0000	0.0000;
	58	1	4.23	1.21	0	0	1	1.03494055	-6.03097041	115	7	1.1	0.9	6.8700	0.0000	0.0000	0.0000;
	59	1	4.73	1.35	0	0	1	1.01878795	-7.69337976	115	2	1.1	0.9	6.8700	0.0000	0.0000	0.0000;
	60	1	3.8	1.08	0	0	1	1.02911842	-6.55568593	115	2	1.1	0.9	6.8700	0.0000	0.0000	0.0000;
	61	1	20.55	5.86	0	0	1	1.03517925	-3.10340821	115	7	1.1	0.9	6.8700	0.0000	0.0000	0.0000;
	62	1	21.41	6.1	0	0	1	1.02669852	-11.3189642	115	4	1.1	0.9	6.8700	0.0000	0.0000	0.0000;
	63	1	7.98	2.27	0	0	1	1.04364639	-8.23332665	115	4	1.1	0.9	6.8700	0.0000	0.0000	0.0000;
	64	1	0	0	0	0	1	1.04147726	-2.532528	115	6	1.1	0.9	6.8700	0.0000	0.0000	0.0000;
	65	2	0	0	0	0	1	1.04	2.11948295	13.8	6	1.1	0.9	6.8700	0.0000	0.0000	0.0000;
	66	1	0	0	0	0	1	1.04097448	-7.84668305	115	4	1.1	0.9	6.8700	0.0000	0.0000	0.0000;
	67	2	0	0	0	0	1	1.04	-7.72863441	13.8	4	1.1	0.9	6.8700	0.0000	0.0000	0.0000;
	68	2	0	0	0	0	1	1.04	-6.66946498	13.8	4	1.1	0.9	6.8700	0.0000	0.0000	0.0000;
	69	2	0	0	0	0	1	1.04	-7.42207383	13.8	4	1.1	0.9	6.8700	0.0000	0.0000	0.0000;
	70	2	0	0	0	0	1	1.04	-6.95942093	13.8	4	1.1	0.9	6.8700	0.0000	0.0000	0.0000;
	71	2	0	0	0	0	1	1.04	-7.48208596	13.8	4	1.1	0.9	6.8700	0.0000	0.0000	0.0000;
	72	2	0	0	0	0	1	1.04	-7.51260438	13.8	4	1.1	0.9	6.8700	0.0000	0.0000	0.0000;
	73	2	0	0	0	0	1	1.04	-7.19349694	13.8	4	1.1	0.9	6.8700	0.0000	0.0000	0.0000;
	74	1	18.76	5.35	0	0	1	1.02945577	-5.1297588	115	6	1.1	0.9	6.8700	0.0000	0.0000	0.0000;
	75	1	3.6	1.03	0	0	1	1.02898408	-6.11729868	115	2	1.1	0.9	6.8700	0.0000	0.0000	0.0000;
	76	2	0	0	0	0	1	1.04	-5.64234113	13.8	2	1.1	0.9	6.8700	0.0000	0.0000	0.0000;
	77	2	0	0	0	0	1	1.04	-5.29374466	13.8	2	1.1	0.9	6.8700	0.0000	0.0000	0.0000;
	78	2	0	0	0	0	1	1.02898408	-6.11729868	13.8	2	1.1	0.9	6.8700	0.0000	0.0000	0.0000;
	79	2	0	0	0	0	1	1.02898408	-6.11729868	13.8	2	1.1	0.9	6.8700	0.0000	0.0000	0.0000;
	80	1	1.48	0.42	0	0	1	1.04740286	-7.25889364	115	5	1.1	0.9	6.8700	0.0000	0.0000	0.0000;
	81	1	0	0	0	0	1	1.03813357	-3.89662343	230	6	1.1	0.9	6.8700	0.0000	0.0000	0.0000;
	82	1	7.6	2.17	0	0	1	1.03529162	-4.72482808	115	6	1.1	0.9	6.8700	0.0000	0.0000	0.0000;
	83	1	3.14	0.89	0	0	1	1.03059749	-5.14808737	115	7	1.1	0.9	6.8700	0.0000	0.0000	0.0000;
	84	1	3.75	1.07	0	0	1	1.01930982	-5.83768058	115	2	1.1	0.9	6.8700	0.0000	0.0000	0.0000;
	85	1	4.83	1.38	0	0	1	1.02409014	-9.8926547	115	4	1.1	0.9	6.8700	0.0000	0.0000	0.0000;
	86	1	8.25	2.35	0	0	1	1.01430188	-7.63420174	115	2	1.1	0.9	6.8700	0.0000	0.0000	0.0000;
	87	1	0	0	0	0	1	1.03822244	-9.28170835	230	3	1.1	0.9	6.8700	0.0000	0.0000	0.0000;
	88	1	49.34	14.06	0	0	1	1.03676009	-10.4760367	115	3	1.1	0.9	6.8700	0.0000	0.0000	0.0000;
	89	1	62.85	17.91	0	0	1	1.0367668	-6.002597	115	7	1.1	0.9	6.8700	0.0000	0.0000	0.0000;
	90	2	0	0	0	0	1	1.04	-4.84367603	13.8	7	1.1	0.9	6.8700	0.0000	0.0000	0.0000;
	91	2	0	0	0	0	1	1.04	-5.60916995	13.8	7	1.1	0.9	6.8700	0.0000	0.0000	0.0000;
	92	2	0	0	0	0	1	1.0367668	-6.002597	13.8	7	1.1	0.9	6.8700	0.0000	0.0000	0.0000;
	93	1	3.06	0.87	0	0	1	1.04636873	-7.70386963	115	4	1.1	0.9	6.8700	0.0000	0.0000	0.0000;
	94	2	0	0	0	0	1	1.04	-6.89184181	13.8	4	1.1	0.9	6.8700	0.0000	0.0000	0.0000;
	95	1	3	0.85	0	30	1	1.04525585	-6.14457378	115	7	1.1	0.9	6.8700	0.0000	0.0000	0.0000;
	96	1	2.96	0.84	0	0	1	1.03993642	-4.62294417	115	7	1.1	0.9	6.8700	0.0000	0.0000	0.0000;
	97	1	7.33	2.09	0	0	1	1.02663366	-8.07181676	115	2	1.1	0.9	6.8700	0.0000	0.0000	0.0000;
	98	1	0	0	0	0	1	1.02598172	-5.69420234	230	2	1.1	0.9	6.8700	0.0000	0.0000	0.0000;
	99	1	12.17	3.47	0	0	1	1.02176795	-6.53355331	115	2	1.1	0.9	6.8700	0.0000	0.0000	0.0000;
	100	1	37.39	10.66	0	80	1	1.05536479	-7.84540409	115	5	1.1	0.9	6.8700	0.0000	0.0000	0.0000;
	101	1	0.52	0.15	0	0	1	1.01535566	-7.48770712	115	2	1.1	0.9	6.8700	0.0000	0.0000	0.0000;
	102	1	0	0	0	0	1	1.03763419	-1.85625975	230	7	1.1	0.9	6.8700	0.0000	0.0000	0.0000;
	103	1	0	0	0	0	1	1.03622816	-2.82138516	115	7	1.1	0.9	6.8700	0.0000	0.0000	0.0000;
	104	2	0	0	0	0	1	1.04	1.29137612	13.8	7	1.1	0.9	6.8700	0.0000	0.0000	0.0000;
	105	2	0	0	0	0	1	1.04	3.0290423	13.8	7	1.1	0.9	6.8700	0.0000	0.0000	0.0000;
	106	1	2.06	0.59	0	0	1	1.03334167	-3.58839406	115	7	1.1	0.9	6.8700	0.0000	0.0000	0.0000;
	107	1	52.56	14.98	0	0	1	1.01650255	-5.89859212	115	7	1.1	0.9	6.8700	0.0000	0.0000	0.0000;
	108	1	9.42	2.68	0	0	1	1.02632117	-6.59188596	115	2	1.1	0.9	6.8700	0.0000	0.0000	0.0000;
	109	1	5.16	1.47	0	0	1	1.02669322	-7.11997278	115	4	1.1	0.9	6.8700	0.0000	0.0000	0.0000;
	110	1	10.86	3.09	0	0	1	1.01541329	-7.49552378	115	2	1.1	0.9	6.8700	0.0000	0.0000	0.0000;
	111	1	8.82	2.51	0	0	1	1.04200621	-8.06908264	115	5	1.1	0.9	6.8700	0.0000	0.0000	0.0000;
	112	1	0	0	0	0	1	1.03400211	-2.38747885	230	7	1.1	0.9	6.8700	0.0000	0.0000	0.0000;
	113	1	0	0	0	0	1	1.02156066	-5.24727629	115	7	1.1	0.9	6.8700	0.0000	0.0000	0.0000;
	114	2	0	0	0	0	1	1.04	-2.10359208	13.8	7	1.1	0.9	6.8700	0.0000	0.0000	0.0000;
	115	2	0	0	0	0	1	1.04	2.07343009	13.8	7	1.1	0.9	6.8700	0.0000	0.0000	0.0000;
	116	1	0	0	0	0	1	1.02607387	-5.40847804	230	2	1.1	0.9	6.8700	0.0000	0.0000	0.0000;
	117	1	34.08	9.71	0	0	1	1.01942728	-6.76221031	115	2	1.1	0.9	6.8700	0.0000	0.0000	0.0000;
	118	1	3.94	1.12	0	0	1	1.02209938	-6.76213015	115	2	1.1	0.9	6.8700	0.0000	0.0000	0.0000;
	119	1	17.55	5	0	0	1	1.01630221	-7.89062662	115	2	1.1	0.9	6.8700	0.0000	0.0000	0.0000;
	120	1	1.8	0.51	0	0	1	1.02444608	-9.26162956	115	4	1.1	0.9	6.8700	0.0000	0.0000	0.0000;
	121	1	0	0	0	0	1	1.0413523	-2.55074245	230	7	1.1	0.9	6.8700	0.0000	0.0000	0.0000;
	122	1	15.44	4.4	0	0	1	1.03919394	-3.47713246	115	7	1.1	0.9	6.8700	0.0000	0.0000	0.0000;
	123	1	0	0	0	0	1	1.03177899	-4.80060848	230	2	1.1	0.9	6.8700	0.0000	0.0000	0.0000;
	124	1	0	0	0	0	1	1.02420958	-6.3126283	115	2	1.1	0.9	6.8700	0.0000	0.0000	0.0000;
	125	2	0	0	0	0	1	1.04	-2.63887226	13.8	2	1.1	0.9	6.8700	0.0000	0.0000	0.0000;
	126	2	0	0	0	0	1	1.04	-3.43438907	13.8	2	1.1	0.9	6.8700	0.0000	0.0000	0.0000;
	127	2	0	0	0	0	1	1.04	-4.15418132	13.8	2	1.1	0.9	6.8700	0.0000	0.0000	0.0000;
	128	1	0	0	0	0	1	1.03374178	-2.64302401	230	7	1.1	0.9	6.8700	0.0000	0.0000	0.0000;
	129	1	77.24	22.01	0	0	1	1.01998695	-5.28172114	115	7	1.1	0.9	6.8700	0.0000	0.0000	0.0000;
	130	1	4.4	1.25	0	0	1	1.0308905	-4.21623941	115	7	1.1	0.9	6.8700	0.0000	0.0000	0.0000;
	131	1	30.25	8.62	0	0	1	1.01596493	-7.48443846	115	2	1.1	0.9	6.8700	0.0000	0.0000	0.0000;
	132	1	26.96	7.68	0	0	1	1.01424679	-7.14487866	115	2	1.1	0.9	6.8700	0.0000	0.0000	0.0000;
	133	1	0	0	0	0	1	1.03343907	-4.37706257	230	2	1.1	0.9	6.8700	0.0000	0.0000	0.0000;
	134	1	0	0	0	0	1	1.03157574	-5.23213081	115	2	1.1	0.9	6.8700	0.0000	0.0000	0.0000;
	135	2	0	0	0	0	1	1.04	-1.98879268	13.8	2	1.1	0.9	6.8700	0.0000	0.0000	0.0000;
	136	2	0	0	0	0	1	1.04	-2.42070618	13.8	2	1.1	0.9	6.8700	0.0000	0.0000	0.0000;
	137	1	1.16	0.33	0	0	1	1.0312613	-9.71983903	115	4	1.1	0.9	6.8700	0.0000	0.0000	0.0000;
	138	1	2.09	0.6	0	0	1	1.03077554	-5.69939054	115	6	1.1	0.9	6.8700	0.0000	0.0000	0.0000;
	139	1	6.84	1.95	0	0	1	1.02141169	-7.36164996	115	2	1.1	0.9	6.8700	0.0000	0.0000	0.0000;
	140	1	8.21	2.34	0	0	1	1.02312063	-6.39176949	115	2	1.1	0.9	6.8700	0.0000	0.0000	0.0000;
	141	1	1.42	0.41	0	0	1	1.0153711	-7.52269319	115	2	1.1	0.9	6.8700	0.0000	0.0000	0.0000;
	142	1	37.26	10.62	0	0	1	1.014083	-7.61861877	115	2	1.1	0.9	6.8700	0.0000	0.0000	0.0000;
	143	1	26.78	7.63	0	0	1	1.03716378	-6.55028737	115	5	1.1	0.9	6.8700	0.0000	0.0000	0.0000;
	144	1	9.05	2.58	0	0	1	1.02367009	-5.92904224	115	2	1.1	0.9	6.8700	0.0000	0.0000	0.0000;
	145	1	17.54	5	0	0	1	1.03200376	-11.1646091	115	3	1.1	0.9	6.8700	0.0000	0.0000	0.0000;
	146	1	0	0	0	0	1	1.03312778	-4.01122903	115	7	1.1	0.9	6.8700	0.0000	0.0000	0.0000;
	147	2	0	0	0	0	1	1.04	0.999909247	13.8	7	1.1	0.9	6.8700	0.0000	0.0000	0.0000;
	148	1	32.02	9.13	0	0	1	1.01024146	-8.19005419	115	2	1.1	0.9	6.8700	0.0000	0.0000	0.0000;
	149	1	0	0	0	0	1	1.03954025	-8.87985303	230	3	1.1	0.9	6.8700	0.0000	0.0000	0.0000;
	150	1	0	0	0	0	1	1.0396499	-10.0004822	115	3	1.1	0.9	6.8700	0.0000	0.0000	0.0000;
	151	2	0	0	0	0	1	1.04	-8.34311143	13.8	3	1.1	0.9	6.8700	0.0000	0.0000	0.0000;
	152	2	0	0	0	0	1	1.04	-7.14013903	13.8	3	1.1	0.9	6.8700	0.0000	0.0000	0.0000;
	153	2	0	0	0	0	1	1.04	-6.61254631	13.8	3	1.1	0.9	6.8700	0.0000	0.0000	0.0000;
	154	2	0	0	0	0	1	1.04	-7.61592875	13.8	3	1.1	0.9	6.8700	0.0000	0.0000	0.0000;
	155	2	0	0	0	0	1	1.04	-7.65405091	13.8	3	1.1	0.9	6.8700	0.0000	0.0000	0.0000;
	156	1	0	0	0	0	1	1.0321123	-4.725596	230	2	1.1	0.9	6.8700	0.0000	0.0000	0.0000;
	157	1	14.76	4.21	0	0	1	1.03052753	-5.44022924	115	2	1.1	0.9	6.8700	0.0000	0.0000	0.0000;
	158	1	8.97	2.56	0	0	1	1.04331107	-7.89999891	115	4	1.1	0.9	6.8700	0.0000	0.0000	0.0000;
	159	1	1.39	0.4	0	0	1	1.02656169	-10.7433532	115	4	1.1	0.9	6.8700	0.0000	0.0000	0.0000;
	160	1	0	0	0	0	1	1.03113284	-11.2403971	115	4	1.1	0.9	6.8700	0.0000	0.0000	0.0000;
	161	2	0	0	0	0	1	1.03113284	-11.2403971	13.8	4	1.1	0.9	6.8700	0.0000	0.0000	0.0000;
	162	1	1.45	0.41	0	0	1	1.02260802	-6.22190461	115	2	1.1	0.9	6.8700	0.0000	0.0000	0.0000;
	163	1	45.8	13.05	0	0	1	1.04285232	-7.92593669	115	5	1.1	0.9	6.8700	0.0000	0.0000	0.0000;
	164	2	0	0	0	0	1	1.04285232	-7.92593669	13.8	5	1.1	0.9	6.8700	0.0000	0.0000	0.0000;
	165	2	0	0	0	0	1	1.04285232	-7.92593669	13.8	5	1.1	0.9	6.8700	0.0000	0.0000	0.0000;
	166	2	0	0	0	0	1	1.04285232	-7.92593669	13.8	5	1.1	0.9	6.8700	0.0000	0.0000	0.0000;
	167	2	0	0	0	0	1	1.04	-7.62405503	13.8	5	1.1	0.9	6.8700	0.0000	0.0000	0.0000;
	168	2	0	0	0	0	1	1.04285232	-7.92593669	13.8	5	1.1	0.9	6.8700	0.0000	0.0000	0.0000;
	169	2	0	0	0	0	1	1.04285232	-7.92593669	13.8	5	1.1	0.9	6.8700	0.0000	0.0000	0.0000;
	170	2	0	0	0	0	1	1.04	-7.35963008	13.8	5	1.1	0.9	6.8700	0.0000	0.0000	0.0000;
	171	1	7.94	2.26	0	0	1	1.02934235	-5.5445882	115	6	1.1	0.9	6.8700	0.0000	0.0000	0.0000;
	172	1	5.38	1.53	0	0	1	1.04444615	-6.73770286	115	5	1.1	0.9	6.8700	0.0000	0.0000	0.0000;
	173	1	8.71	2.48	0	0	1	1.04363558	-7.82515111	115	5	1.1	0.9	6.8700	0.0000	0.0000	0.0000;
	174	1	2.77	0.79	0	0	1	1.04837375	-6.97596698	115	5	1.1	0.9	6.8700	0.0000	0.0000	0.0000;
	175	1	7.31	2.08	0	0	1	1.04224472	-8.05133863	115	5	1.1	0.9	6.8700	0.0000	0.0000	0.0000;
	176	1	19.01	5.42	0	0	1	1.03404291	-10.8495202	115	3	1.1	0.9	6.8700	0.0000	0.0000	0.0000;
	177	1	11.29	3.22	0	0	1	1.02792935	-5.4462954	115	7	1.1	0.9	6.8700	0.0000	0.0000	0.0000;
	178	1	0	0	0	0	1	1.04139148	-4.88916334	230	5	1.1	0.9	6.8700	0.0000	0.0000	0.0000;
	179	1	23.61	6.73	0	0	1	1.04601916	-6.90802125	115	5	1.1	0.9	6.8700	0.0000	0.0000	0.0000;
	180	1	7.74	2.21	0	0	1	1.04496974	-7.12463485	115	5	1.1	0.9	6.8700	0.0000	0.0000	0.0000;
	181	1	47.98	13.67	0	0	1	1.03337842	-11.1959779	115	4	1.1	0.9	6.8700	0.0000	0.0000	0.0000;
	182	2	0	0	0	0	1	1.04	-10.3752178	13.8	4	1.1	0.9	6.8700	0.0000	0.0000	0.0000;
	183	2	0	0	0	0	1	1.04	-10.7240461	13.8	4	1.1	0.9	6.8700	0.0000	0.0000	0.0000;
	184	1	10.69	3.05	0	0	1	1.04903435	-8.28969149	115	5	1.1	0.9	6.8700	0.0000	0.0000	0.0000;
	185	1	10.79	3.07	0	0	1	1.03411746	-10.8716615	115	3	1.1	0.9	6.8700	0.0000	0.0000	0.0000;
	186	1	2.1	0.6	0	0	1	1.02947537	-5.9160269	115	2	1.1	0.9	6.8700	0.0000	0.0000	0.0000;
	187	1	0	0	0	0	1	1.04110027	-1.59368664	230	7	1.1	0.9	6.8700	0.0000	0.0000	0.0000;
	188	1	0	0	0	0	1	1.04218177	-4.27470444	115	7	1.1	0.9	6.8700	0.0000	0.0000	0.0000;
	189	3	0	0	0	0	1	1.04	0	13.8	7	1.1	0.9	6.8700	0.0000	0.0000	0.0000;
	190	1	16.79	4.78	0	0	1	1.02749003	-5.60785145	115	6	1.1	0.9	6.8700	0.0000	0.0000	0.0000;
	191	1	7.23	2.06	0	0	1	1.04574813	-7.76160944	115	5	1.1	0.9	6.8700	0.0000	0.0000	0.0000;
	192	1	52.74	15.03	0	0	1	1.01670013	-5.99347368	115	7	1.1	0.9	6.8700	0.0000	0.0000	0.0000;
	193	1	21.99	6.27	0	0	1	1.01648676	-7.38040553	115	2	1.1	0.9	6.8700	0.0000	0.0000	0.0000;
	194	1	37.57	10.71	0	50	1	1.0400694	-10.7040819	115	3	1.1	0.9	6.8700	0.0000	0.0000	0.0000;
	195	1	0	0	0	0	1	1.03324176	-5.12755041	115	6	1.1	0.9	6.8700	0.0000	0.0000	0.0000;
	196	2	0	0	0	0	1	1.03324176	-5.12755041	13.8	6	1.1	0.9	6.8700	0.0000	0.0000	0.0000;
	197	2	0	0	0	0	1	1.03324176	-5.12755041	13.8	6	1.1	0.9	6.8700	0.0000	0.0000	0.0000;
	198	1	5.37	1.53	0	0	1	1.02323693	-6.85057774	115	2	1.1	0.9	6.8700	0.0000	0.0000	0.0000;
	199	1	4.26	1.21	0	0	1	1.04369788	-5.72118205	115	6	1.1	0.9	6.8700	0.0000	0.0000	0.0000;
	200	1	9.34	2.66	0	0	1	1.02591858	-9.3684472	115	4	1.1	0.9	6.8700	0.0000	0.0000	0.0000;
];

%% generator data
%	bus	Pg	Qg	Qmax	Qmin	Vg	mBase	status	Pmax	Pmin	Pc1	Pc2	Qc1min	Qc1max	Qc2min	Qc2max	ramp_agc	ramp_10	ramp_30	ramp_q	apf	mu_Pmax	mu_Pmin	mu_Qmax	mu_Qmin
mpc.gen = [
	49	1.36	0.88917296	2.11	-0.55	1.04	101.36	1	4.53	1.36	0	0	0	0	0	0	0	0	0	0	0	0.0000	0.0000	0.0000	0.0000;
	50	1.36	1.18625788	2.11	-0.55	1.04	101.36	1	4.53	1.36	0	0	0	0	0	0	0	0	0	0	0	0.0000	0.0000	0.0000	0.0000;
	51	1.36	0.773368323	2.11	-0.55	1.04	101.36	1	4.53	1.36	0	0	0	0	0	0	0	0	0	0	0	0.0000	0.0000	0.0000	0.0000;
	52	1.36	1.26187807	2.11	-0.55	1.04	101.36	1	4.53	1.36	0	0	0	0	0	0	0	0	0	0	0	0.0000	0.0000	0.0000	0.0000;
	53	2.72	0.799923778	4.23	-1.11	1.04	102.72	1	9.07	2.72	0	0	0	0	0	0	0	0	0	0	0	0.0000	0.0000	0.0000	0.0000;
	65	86.5	0.910373188	32.04	-21.66	1.04	186.5	1	86.5	86.5	0	0	0	0	0	0	0	0	0	0	0	0.0000	0.0000	0.0000	0.0000;
	67	1.41	-0.902413669	2.19	-0.57	1.04	101.41	1	4.7	1.41	0	0	0	0	0	0	0	0	0	0	0	0.0000	0.0000	0.0000	0.0000;
	68	8.38	-0.51409407	13.01	-3.41	1.04	108.38	1	27.92	8.38	0	0	0	0	0	0	0	0	0	0	0	0.0000	0.0000	0.0000	0.0000;
	69	8.38	-1.42466234	13.01	-3.41	1.04	108.38	1	27.92	8.38	0	0	0	0	0	0	0	0	0	0	0	0.0000	0.0000	0.0000	0.0000;
	70	8.38	-0.732535042	13.01	-3.41	1.04	108.38	1	27.92	8.38	0	0	0	0	0	0	0	0	0	0	0	0.0000	0.0000	0.0000	0.0000;
	71	8.38	-1.5785155	13.01	-3.41	1.04	108.38	1	27.92	8.38	0	0	0	0	0	0	0	0	0	0	0	0.0000	0.0000	0.0000	0.0000;
	72	8.38	-1.73018479	13.01	-3.41	1.04	108.38	1	27.92	8.38	0	0	0	0	0	0	0	0	0	0	0	0.0000	0.0000	0.0000	0.0000;
	73	8.38	-1.03842216	13.01	-3.41	1.04	108.38	1	27.92	8.38	0	0	0	0	0	0	0	0	0	0	0	0.0000	0.0000	0.0000	0.0000;
	76	1.2	1.40652409	2.04	-0.44	1.04	101.2	1	4	1.2	0	0	0	0	0	0	0	0	0	0	0	0.0000	0.0000	0.0000	0.0000;
	77	0.72	0.501352445	1.22	-0.27	1.04	100.72	1	2.4	0.72	0	0	0	0	0	0	0	0	0	0	0	0.0000	0.0000	0.0000	0.0000;
	90	0.96	0.131852136	1.63	-0.36	1.04	100.96	1	3.2	0.96	0	0	0	0	0	0	0	0	0	0	0	0.0000	0.0000	0.0000	0.0000;
	91	1.5	0.599640188	2.55	-0.55	1.04	101.5	1	5	1.5	0	0	0	0	0	0	0	0	0	0	0	0.0000	0.0000	0.0000	0.0000;
	94	5.4	-2.52703479	8.39	-2.2	1.04	105.4	1	18	5.4	0	0	0	0	0	0	0	0	0	0	0	0.0000	0.0000	0.0000	0.0000;
	104	67.6	3.0414854	21.09	-14.26	1.04	167.6	1	67.6	67.6	0	0	0	0	0	0	0	0	0	0	0	0.0000	0.0000	0.0000	0.0000;
	105	154.8	8.21153017	42.17	-28.51	1.04	254.8	1	154.8	154.8	0	0	0	0	0	0	0	0	0	0	0	0.0000	0.0000	0.0000	0.0000;
	114	1.4	1.24673917	0.36	-0.24	1.04	101.4	1	1.4	1.4	0	0	0	0	0	0	0	0	0	0	0	0.0000	0.0000	0.0000	0.0000;
	115	133.5	12.4048975	31.95	-21.6	1.04	233.5	1	133.5	133.5	0	0	0	0	0	0	0	0	0	0	0	0.0000	0.0000	0.0000	0.0000;
	125	39.02	7.23534065	60.6	-15.87	1.04	139.02	1	130.05	39.02	0	0	0	0	0	0	0	0	0	0	0	0.0000	0.0000	0.0000	0.0000;
	126	39.02	12.5333573	60.6	-15.87	1.04	139.02	1	130.05	39.02	0	0	0	0	0	0	0	0	0	0	0	0.0000	0.0000	0.0000	0.0000;
	127	39.02	25.9630459	60.6	-15.87	1.04	139.02	1	130.05	39.02	0	0	0	0	0	0	0	0	0	0	0	0.0000	0.0000	0.0000	0.0000;
	135	133.92	21.4283828	208.02	-54.46	1.04	233.92	1	446.4	133.92	0	0	0	0	0	0	0	0	0	0	0	0.0000	0.0000	0.0000	0.0000;
	136	133.92	25.016284	208.02	-54.46	1.04	233.92	1	446.4	133.92	0	0	0	0	0	0	0	0	0	0	0	0.0000	0.0000	0.0000	0.0000;
	147	92.4	8.78494434	21.41	-14.47	1.04	192.4	1	92.4	92.4	0	0	0	0	0	0	0	0	0	0	0	0.0000	0.0000	0.0000	0.0000;
	151	1.62	0.0253109636	2.52	-0.66	1.04	101.62	1	5.4	1.62	0	0	0	0	0	0	0	0	0	0	0	0.0000	0.0000	0.0000	0.0000;
	152	23.17	0.281990412	35.99	-9.42	1.04	123.17	1	77.22	23.17	0	0	0	0	0	0	0	0	0	0	0	0.0000	0.0000	0.0000	0.0000;
	153	23.17	0.0284308544	35.99	-9.42	1.04	123.17	1	77.22	23.17	0	0	0	0	0	0	0	0	0	0	0	0.0000	0.0000	0.0000	0.0000;
	154	23.17	0.159558599	35.99	-9.42	1.04	123.17	1	77.22	23.17	0	0	0	0	0	0	0	0	0	0	0	0.0000	0.0000	0.0000	0.0000;
	155	23.17	0.148867583	35.99	-9.42	1.04	123.17	1	77.22	23.17	0	0	0	0	0	0	0	0	0	0	0	0.0000	0.0000	0.0000	0.0000;
	167	2.82	-1.65231728	4.78	-1.04	1.04	102.82	1	9.4	2.82	0	0	0	0	0	0	0	0	0	0	0	0.0000	0.0000	0.0000	0.0000;
	170	2.82	-0.900240383	4.78	-1.04	1.04	102.82	1	9.4	2.82	0	0	0	0	0	0	0	0	0	0	0	0.0000	0.0000	0.0000	0.0000;
	182	5.25	2.15611239	8.16	-2.14	1.04	105.25	1	17.5	5.25	0	0	0	0	0	0	0	0	0	0	0	0.0000	0.0000	0.0000	0.0000;
	183	7.98	5.73605209	12.4	-3.25	1.04	107.98	1	26.6	7.98	0	0	0	0	0	0	0	0	0	0	0	0.0000	0.0000	0.0000	0.0000;
	189	384.396897	-24.0389911	209.45	-46.67	1.04	484.396897	1	569.15	170.75	0	0	0	0	0	0	0	0	0	0	0	0.0000	0.0000	0.0000	0.0000;
];

%% branch data
%	fbus	tbus	r	x	b	rateA	rateB	rateC	ratio	angle	status	angmin	angmax	Pf	Qf	Pt	Qt	mu_Sf	mu_St	mu_angmin	mu_angmax
mpc.branch = [
	2	1	0.000673	0.003339	0	100	0	0	0	0	1	0	0	-7.3900	-2.1000	7.3904	2.1019	0.0000	0.0000	0.0000	0.0000;
	1	119	0.018542	0.119758	0.02285	221.1	0	0	0	0	1	0	0	12.2423	-0.5618	-12.2154	-1.6318	0.0000	0.0000	0.0000	0.0000;
	124	1	0.005615	0.036268	0.00692	221.1	0	0	0	0	1	0	0	40.1326	7.9357	-40.0427	-8.0774	0.0000	0.0000	0.0000	0.0000;
	193	1	0.004258	0.027501	0.00525	221.1	0	0	0	0	1	0	0	-20.3910	-6.9586	20.4100	6.5372	0.0000	0.0000	0.0000	0.0000;
	4	3	0.000573	0.003303	0	100	0	0	0	0	1	0	0	-1.7000	-0.4800	1.7000	0.4801	0.0000	0.0000	0.0000	0.0000;
	57	3	0.008505	0.058098	0.00988	221.1	0	0	0	0	1	0	0	-13.5592	-1.8600	13.5741	0.9158	0.0000	0.0000	0.0000	0.0000;
	3	137	0.005889	0.038035	0.00726	221.1	0	0	0	0	1	0	0	-15.2741	-1.3959	15.2871	0.7088	0.0000	0.0000	0.0000	0.0000;
	6	5	0.000694	0.003337	0	100	0	0	0	0	1	0	0	-7.9500	-2.2600	7.9504	2.2621	0.0000	0.0000	0.0000	0.0000;
	48	5	0.006246	0.043513	0.00711	221.1	0	0	0	0	1	0	0	-27.2181	-1.3485	27.2613	0.8863	0.0000	0.0000	0.0000	0.0000;
	5	64	0.007877	0.054875	0.00897	221.1	0	0	0	0	1	0	0	-35.2118	-3.1484	35.3031	2.8155	0.0000	0.0000	0.0000	0.0000;
	8	7	0.000634	0.003189	0	100	0	0	0	0	1	0	0	-23.7400	-6.7700	23.7438	6.7889	0.0000	0.0000	0.0000	0.0000;
	7	86	0.003756	0.024259	0.00463	221.1	0	0	0	0	1	0	0	-12.2887	-3.2946	12.2946	2.8568	0.0000	0.0000	0.0000	0.0000;
	7	101	0.003597	0.023232	0.00443	221.1	0	0	0	0	1	0	0	-24.5883	-6.1486	24.6107	5.8376	0.0000	0.0000	0.0000	0.0000;
	7	148	0.008667	0.05598	0.01068	221.1	0	0	0	0	1	0	0	13.1332	2.6543	-13.1178	-3.6477	0.0000	0.0000	0.0000	0.0000;
	10	9	0.000585	0.003967	0	100	0	0	0	0	1	0	0	-42.6800	-12.1600	42.6912	12.2358	0.0000	0.0000	0.0000	0.0000;
	9	124	0.008069	0.055123	0.00938	221.1	0	0	0	0	1	0	0	-39.5740	-9.8255	39.7033	9.7329	0.0000	0.0000	0.0000	0.0000;
	131	9	0.004139	0.026732	0.0051	221.1	0	0	0	0	1	0	0	-0.6793	0.5192	0.6793	-1.0453	0.0000	0.0000	0.0000	0.0000;
	9	141	0.004446	0.03097	0.00506	221.1	0	0	0	0	1	0	0	3.0471	0.6661	-3.0467	-1.1849	0.0000	0.0000	0.0000	0.0000;
	9	193	0.003695	0.025244	0.00429	221.1	0	0	0	0	1	0	0	-6.8436	-2.0311	6.8453	1.6004	0.0000	0.0000	0.0000	0.0000;
	12	11	0.000534	0.003533	0	100	0	0	0	0	1	0	0	-0.3000	-0.0900	0.3000	0.0900	0.0000	0.0000	0.0000	0.0000;
	13	11	0.000619	0.003606	0	100	0	0	0	0	1	0	0	-2.5200	-0.7200	2.5200	0.7202	0.0000	0.0000	0.0000	0.0000;
	11	15	0.010408	0.06722	0.01282	221.1	0	0	0	0	1	0	0	-14.5140	-2.6692	14.5344	1.3939	0.0000	0.0000	0.0000	0.0000;
	11	93	0.018394	0.128141	0.02095	221.1	0	0	0	0	1	0	0	1.4460	-1.4367	-1.4457	-0.8544	0.0000	0.0000	0.0000	0.0000;
	158	11	0.008519	0.058199	0.0099	221.1	0	0	0	0	1	0	0	-10.2387	-4.3126	10.2480	3.2956	0.0000	0.0000	0.0000	0.0000;
	15	14	0.000637	0.027526	0	300	0	0	1	0	1	0	0	-59.3053	18.7960	59.3277	-17.8278	0.0000	0.0000	0.0000	0.0000;
	14	121	0.007013	0.050098	0.09134	402.36	0	0	0	0	1	0	0	-135.6945	25.2125	136.9365	-26.2752	0.0000	0.0000	0.0000	0.0000;
	14	149	0.009133	0.065244	0.11895	402.36	0	0	0	0	1	0	0	76.3667	-7.3847	-75.8785	-2.0441	0.0000	0.0000	0.0000	0.0000;
	16	15	0.000553	0.0032	0	100	0	0	0	0	1	0	0	-44.7600	-12.7600	44.7709	12.8231	0.0000	0.0000	0.0000	0.0000;
	18	17	0.000503	0.003926	0	100	0	0	0	0	1	0	0	-0.7100	-0.2000	0.7100	0.2000	0.0000	0.0000	0.0000	0.0000;
	19	17	0.000514	0.003079	0	100	0	0	0	0	1	0	0	-0.7700	-0.2200	0.7700	0.2200	0.0000	0.0000	0.0000	0.0000;
	20	17	0.000623	0.003339	0	100	0	0	0	0	1	0	0	-1.1300	-0.3200	1.1300	0.3200	0.0000	0.0000	0.0000	0.0000;
	21	17	0.00062	0.00394	0	100	0	0	0	0	1	0	0	-4.6100	-1.3100	4.6101	1.3109	0.0000	0.0000	0.0000	0.0000;
	109	17	0.009789	0.068198	0.01115	221.1	0	0	0	0	1	0	0	31.7391	-1.9575	-31.6453	1.4373	0.0000	0.0000	0.0000	0.0000;
	17	120	0.010316	0.070473	0.01199	221.1	0	0	0	0	1	0	0	24.4252	-3.4882	-24.3658	2.6353	0.0000	0.0000	0.0000	0.0000;
	23	22	0.000616	0.003222	0	100	0	0	0	0	1	0	0	-1.4100	-0.4000	1.4100	0.4001	0.0000	0.0000	0.0000	0.0000;
	24	22	0.000687	0.003067	0	100	0	0	0	0	1	0	0	-2.4000	-0.6800	2.4000	0.6802	0.0000	0.0000	0.0000	0.0000;
	22	27	0.011379	0.073494	0.01402	221.1	0	0	0	0	1	0	0	-1.4099	-2.0219	1.4102	0.4933	0.0000	0.0000	0.0000	0.0000;
	158	22	0.012701	0.086769	0.01476	221.1	0	0	0	0	1	0	0	2.4012	-2.5431	-2.4002	0.9417	0.0000	0.0000	0.0000	0.0000;
	26	25	0.00061	0.003071	0	100	0	0	0	0	1	0	0	-1.3500	-0.3900	1.3500	0.3901	0.0000	0.0000	0.0000	0.0000;
	25	64	0.007643	0.053244	0.0087	221.1	0	0	0	0	1	0	0	-50.9193	9.3051	51.1084	-8.9323	0.0000	0.0000	0.0000	0.0000;
	199	25	0.009909	0.064003	0.01221	221.1	0	0	0	0	1	0	0	-49.3378	9.8621	49.5693	-9.6952	0.0000	0.0000	0.0000	0.0000;
	28	27	0.000587	0.003964	0	100	0	0	0	0	1	0	0	-2.3300	-0.6700	2.3300	0.6702	0.0000	0.0000	0.0000	0.0000;
	27	93	0.025172	0.175362	0.02867	221.1	0	0	0	0	1	0	0	-2.9564	-1.6496	2.9584	-1.4728	0.0000	0.0000	0.0000	0.0000;
	27	158	0.020429	0.131945	0.02517	221.1	0	0	0	0	1	0	0	-0.7839	0.4861	0.7846	-3.2267	0.0000	0.0000	0.0000	0.0000;
	30	29	0.000694	0.003131	0	100	0	0	0	0	1	0	0	-59.0900	-16.8400	59.1153	16.9542	0.0000	0.0000	0.0000	0.0000;
	124	29	0.005561	0.038742	0.00633	221.1	0	0	0	0	1	0	0	36.4442	10.6066	-36.3675	-10.7320	0.0000	0.0000	0.0000	0.0000;
	29	140	0.007895	0.055004	0.00899	221.1	0	0	0	0	1	0	0	-22.7478	-6.2222	22.7898	5.5778	0.0000	0.0000	0.0000	0.0000;
	32	31	0.000667	0.003884	0	100	0	0	0	0	1	0	0	-0.5100	-0.1500	0.5100	0.1500	0.0000	0.0000	0.0000	0.0000;
	33	31	0.000528	0.003639	0	100	0	0	0	0	1	0	0	-6.4400	-1.8400	6.4402	1.8416	0.0000	0.0000	0.0000	0.0000;
	177	31	0.008406	0.05856	0.00957	221.1	0	0	0	0	1	0	0	13.4263	8.7414	-13.4051	-9.5991	0.0000	0.0000	0.0000	0.0000;
	192	31	0.008088	0.05525	0.0094	221.1	0	0	0	0	1	0	0	-6.4466	-8.5270	6.4549	7.6075	0.0000	0.0000	0.0000	0.0000;
	35	34	0.000575	0.003674	0	100	0	0	0	0	1	0	0	-20.7600	-5.9200	20.7625	5.9361	0.0000	0.0000	0.0000	0.0000;
	34	54	0.006268	0.042819	0.00729	221.1	0	0	0	0	1	0	0	-37.2273	-6.1812	37.3107	5.9702	0.0000	0.0000	0.0000	0.0000;
	34	137	0.006911	0.044639	0.00852	221.1	0	0	0	0	1	0	0	16.4647	0.2452	-16.4471	-1.0388	0.0000	0.0000	0.0000	0.0000;
	37	36	0.000552	0.003328	0	100	0	0	0	0	1	0	0	-3.5700	-1.0200	3.5701	1.0204	0.0000	0.0000	0.0000	0.0000;
	38	36	0.00067	0.003511	0	100	0	0	0	0	1	0	0	-29.8100	-8.5000	29.8161	8.5319	0.0000	0.0000	0.0000	0.0000;
	58	36	0.010889	0.07439	0.01266	221.1	0	0	0	0	1	0	0	4.9956	8.1530	-4.9851	-9.4286	0.0000	0.0000	0.0000	0.0000;
	83	36	0.009615	0.066986	0.01095	221.1	0	0	0	0	1	0	0	28.4745	-0.5250	-28.4011	-0.1238	0.0000	0.0000	0.0000	0.0000;
	40	39	0.000505	0.003103	0	100	0	0	0	0	1	0	0	-2.0400	-0.5800	2.0400	0.5801	0.0000	0.0000	0.0000	0.0000;
	39	85	0.008702	0.060625	0.00991	221.1	0	0	0	0	1	0	0	-17.6706	2.9139	17.6975	-3.7665	0.0000	0.0000	0.0000	0.0000;
	159	39	0.007332	0.05108	0.00835	221.1	0	0	0	0	1	0	0	-8.2140	4.7716	8.2206	-5.6040	0.0000	0.0000	0.0000	0.0000;
	41	100	0.004595	0.029676	0.00566	221.1	0	0	0	0	1	0	0	-12.2615	-31.3794	12.3084	31.0572	0.0000	0.0000	0.0000	0.0000;
	41	163	0.003165	0.021623	0.00368	221.1	0	0	0	0	1	0	0	-0.7618	15.1831	0.7686	-15.5376	0.0000	0.0000	0.0000	0.0000;
	41	180	0.009408	0.060766	0.01159	221.1	0	0	0	0	1	0	0	-25.3167	5.2664	25.3748	-6.1579	0.0000	0.0000	0.0000	0.0000;
	44	42	0.012256	0.085383	0.01396	221.1	0	0	0	0	1	0	0	13.8860	-5.2053	-13.8613	3.8989	0.0000	0.0000	0.0000	0.0000;
	181	42	0.008008	0.05579	0.00912	221.1	0	0	0	0	1	0	0	-3.2374	5.9854	3.2413	-6.9289	0.0000	0.0000	0.0000	0.0000;
	43	84	0.007509	0.051295	0.00873	221.1	0	0	0	0	1	0	0	-20.0446	-1.4769	20.0738	0.7714	0.0000	0.0000	0.0000	0.0000;
	43	132	0.011052	0.075503	0.01285	221.1	0	0	0	0	1	0	0	17.9546	0.8869	-17.9199	-1.9758	0.0000	0.0000	0.0000	0.0000;
	44	200	0.014813	0.101195	0.01722	221.1	0	0	0	0	1	0	0	-18.0360	4.0253	18.0850	-5.5066	0.0000	0.0000	0.0000	0.0000;
	46	45	0.000936	0.049195	0	160	0	0	1	0	1	0	0	-31.3903	-0.5262	31.3988	0.9764	0.0000	0.0000	0.0000	0.0000;
	55	45	0.002593	0.018527	0.03378	402.36	0	0	0	0	1	0	0	-23.9423	-5.9468	23.9565	2.4103	0.0000	0.0000	0.0000	0.0000;
	102	45	0.0029	0.020715	0.03777	402.36	0	0	0	0	1	0	0	18.4072	-8.7446	-18.3968	4.7485	0.0000	0.0000	0.0000	0.0000;
	45	187	0.003474	0.024821	0.04525	402.36	0	0	0	0	1	0	0	-36.9585	-8.1352	37.0035	3.5649	0.0000	0.0000	0.0000	0.0000;
	61	46	0.006971	0.048561	0.00794	221.1	0	0	0	0	1	0	0	-8.8627	-4.7835	8.8691	3.9747	0.0000	0.0000	0.0000	0.0000;
	122	46	0.010129	0.065419	0.01248	221.1	0	0	0	0	1	0	0	-16.1546	4.0843	16.1812	-5.2585	0.0000	0.0000	0.0000	0.0000;