1,'GENROU',1 ,  8.96,   0.05,    0.31,   0.05,  23.64,   2.64,   0.146, 0.0608,  0.0969, 0.0608,  0.05,  0.026,  0.000, 0.000,/USRWHT
4,'GENROU',1 ,  8.5,    0.037,   1.24,  0.074,   6.47,  0.647,   1.75,  0.427,   1.72,   0.65,    0.275, 0.22,   0.000, 0.000,/USRWHT
6,'GENROU',1 ,  3.27,   0.032,   0.31,  0.079,  5.047,  0.5047,  2.2,   0.556,   2.112,  0.773,   0.327, 0.246,  0.000, 0.000,/USRWHT
8,'GENROU',1 ,  8.96,   0.05,    0.31,   0.05,  23.64,   2.64,   0.146, 0.0608,  0.0969, 0.0608,  0.05,  0.026,  0.000, 0.000,/USRWHT
10,'GENROU',1 ,  8.5,    0.037,   1.24,  0.074,   6.47,  0.647,   1.75,  0.427,   1.72,   0.65,    0.275, 0.22,   0.000, 0.000,/USRWHT
12,'GENROU',1 ,  3.27,   0.032,   0.31,  0.079,  5.047,  0.5047,  2.2,   0.556,   2.112,  0.773,   0.327, 0.246,  0.000, 0.000,/USRWHT
15,'GENROU',1 ,  8.96,   0.05,    0.31,   0.05,  23.64,   2.64,   0.146, 0.0608,  0.0969, 0.0608,  0.05,  0.026,  0.000, 0.000,/USRWHT
18,'GENROU',1 ,  8.5,    0.037,   1.24,  0.074,   6.47,  0.647,   1.75,  0.427,   1.72,   0.65,    0.275, 0.22,   0.000, 0.000,/USRWHT
19,'GENROU',1 ,  3.27,   0.032,   0.31,  0.079,  5.047,  0.5047,  2.2,   0.556,   2.112,  0.773,   0.327, 0.246,  0.000, 0.000,/USRWHT
24,'GENROU',1 ,  8.96,   0.05,    0.31,   0.05,  23.64,   2.64,   0.146, 0.0608,  0.0969, 0.0608,  0.05,  0.026,  0.000, 0.000,/USRWHT
25,'GENROU',1 ,  8.5,    0.037,   1.24,  0.074,   6.47,  0.647,   1.75,  0.427,   1.72,   0.65,    0.275, 0.22,   0.000, 0.000,/USRWHT
26,'GENROU',1 ,  3.27,   0.032,   0.31,  0.079,  5.047,  0.5047,  2.2,   0.556,   2.112,  0.773,   0.327, 0.246,  0.000, 0.000,/USRWHT
27,'GENROU',1 ,  8.96,   0.05,    0.31,   0.05,  23.64,   2.64,   0.146, 0.0608,  0.0969, 0.0608,  0.05,  0.026,  0.000, 0.000,/USRWHT
31,'GENROU',1 ,  8.5,    0.037,   1.24,  0.074,   6.47,  0.647,   1.75,  0.427,   1.72,   0.65,    0.275, 0.22,   0.000, 0.000,/USRWHT
32,'GENROU',1 ,  3.27,   0.032,   0.31,  0.079,  5.047,  0.5047,  2.2,   0.556,   2.112,  0.773,   0.327, 0.246,  0.000, 0.000,/USRWHT
34,'GENROU',1 ,  8.96,   0.05,    0.31,   0.05,  23.64,   2.64,   0.146, 0.0608,  0.0969, 0.0608,  0.05,  0.026,  0.000, 0.000,/USRWHT
36,'GENROU',1 ,  8.5,    0.037,   1.24,  0.074,   6.47,  0.647,   1.75,  0.427,   1.72,   0.65,    0.275, 0.22,   0.000, 0.000,/USRWHT
40,'GENROU',1 ,  3.27,   0.032,   0.31,  0.079,  5.047,  0.5047,  2.2,   0.556,   2.112,  0.773,   0.327, 0.246,  0.000, 0.000,/USRWHT
42,'GENROU',1 ,  8.96,   0.05,    0.31,   0.05,  23.64,   2.64,   0.146, 0.0608,  0.0969, 0.0608,  0.05,  0.026,  0.000, 0.000,/USRWHT
46,'GENROU',1 ,  8.5,    0.037,   1.24,  0.074,   6.47,  0.647,   1.75,  0.427,   1.72,   0.65,    0.275, 0.22,   0.000, 0.000,/USRWHT
49,'GENROU',1 ,  3.27,   0.032,   0.31,  0.079,  5.047,  0.5047,  2.2,   0.556,   2.112,  0.773,   0.327, 0.246,  0.000, 0.000,/USRWHT
54,'GENROU',1 ,  8.96,   0.05,    0.31,   0.05,  23.64,   2.64,   0.146, 0.0608,  0.0969, 0.0608,  0.05,  0.026,  0.000, 0.000,/USRWHT
55,'GENROU',1 ,  8.5,    0.037,   1.24,  0.074,   6.47,  0.647,   1.75,  0.427,   1.72,   0.65,    0.275, 0.22,   0.000, 0.000,/USRWHT
56,'GENROU',1 ,  3.27,   0.032,   0.31,  0.079,  5.047,  0.5047,  2.2,   0.556,   2.112,  0.773,   0.327, 0.246,  0.000, 0.000,/USRWHT
59,'GENROU',1 ,  8.96,   0.05,    0.31,   0.05,  23.64,   2.64,   0.146, 0.0608,  0.0969, 0.0608,  0.05,  0.026,  0.000, 0.000,/USRWHT
61,'GENROU',1 ,  8.5,    0.037,   1.24,  0.074,   6.47,  0.647,   1.75,  0.427,   1.72,   0.65,    0.275, 0.22,   0.000, 0.000,/USRWHT
62,'GENROU',1 ,  3.27,   0.032,   0.31,  0.079,  5.047,  0.5047,  2.2,   0.556,   2.112,  0.773,   0.327, 0.246,  0.000, 0.000,/USRWHT
65,'GENROU',1 ,  3.27,   0.032,   0.31,  0.079,  5.047,  0.5047,  2.2,   0.556,   2.112,  0.773,   0.327, 0.246,  0.000, 0.000,/USRWHT
66,'GENROU',1 ,  8.96,   0.05,    0.31,   0.05,  23.64,   2.64,   0.146, 0.0608,  0.0969, 0.0608,  0.05,  0.026,  0.000, 0.000,/USRWHT
69,'GENROU',1 ,  8.5,    0.037,   1.24,  0.074,   6.47,  0.647,   1.75,  0.427,   1.72,   0.65,    0.275, 0.22,   0.000, 0.000,/USRWHT
70,'GENROU',1 ,  3.27,   0.032,   0.31,  0.079,  5.047,  0.5047,  2.2,   0.556,   2.112,  0.773,   0.327, 0.246,  0.000, 0.000,/USRWHT
72,'GENROU',1 ,  8.96,   0.05,    0.31,   0.05,  23.64,   2.64,   0.146, 0.0608,  0.0969, 0.0608,  0.05,  0.026,  0.000, 0.000,/USRWHT
73,'GENROU',1 ,  8.5,    0.037,   1.24,  0.074,   6.47,  0.647,   1.75,  0.427,   1.72,   0.65,    0.275, 0.22,   0.000, 0.000,/USRWHT
74,'GENROU',1 ,  3.27,   0.032,   0.31,  0.079,  5.047,  0.5047,  2.2,   0.556,   2.112,  0.773,   0.327, 0.246,  0.000, 0.000,/USRWHT
76,'GENROU',1 ,  8.96,   0.05,    0.31,   0.05,  23.64,   2.64,   0.146, 0.0608,  0.0969, 0.0608,  0.05,  0.026,  0.000, 0.000,/USRWHT
77,'GENROU',1 ,  8.5,    0.037,   1.24,  0.074,   6.47,  0.647,   1.75,  0.427,   1.72,   0.65,    0.275, 0.22,   0.000, 0.000,/USRWHT
80,'GENROU',1 ,  3.27,   0.032,   0.31,  0.079,  5.047,  0.5047,  2.2,   0.556,   2.112,  0.773,   0.327, 0.246,  0.000, 0.000,/USRWHT
85,'GENROU',1 ,  8.96,   0.05,    0.31,   0.05,  23.64,   2.64,   0.146, 0.0608,  0.0969, 0.0608,  0.05,  0.026,  0.000, 0.000,/USRWHT
87,'GENROU',1 ,  8.5,    0.037,   1.24,  0.074,   6.47,  0.647,   1.75,  0.427,   1.72,   0.65,    0.275, 0.22,   0.000, 0.000,/USRWHT
89,'GENROU',1 ,  3.27,   0.032,   0.31,  0.079,  5.047,  0.5047,  2.2,   0.556,   2.112,  0.773,   0.327, 0.246,  0.000, 0.000,/USRWHT
90,'GENROU',1 ,  8.5,    0.037,   1.24,  0.074,   6.47,  0.647,   1.75,  0.427,   1.72,   0.65,    0.275, 0.22,   0.000, 0.000,/USRWHT
91,'GENROU',1 ,  3.27,   0.032,   0.31,  0.079,  5.047,  0.5047,  2.2,   0.556,   2.112,  0.773,   0.327, 0.246,  0.000, 0.000,/USRWHT
92,'GENROU',1 ,  8.96,   0.05,    0.31,   0.05,  23.64,   2.64,   0.146, 0.0608,  0.0969, 0.0608,  0.05,  0.026,  0.000, 0.000,/USRWHT
99,'GENROU',1 ,  8.5,    0.037,   1.24,  0.074,   6.47,  0.647,   1.75,  0.427,   1.72,   0.65,    0.275, 0.22,   0.000, 0.000,/USRWHT
100,'GENROU',1 ,  3.27,   0.032,   0.31,  0.079,  5.047,  0.5047,  2.2,   0.556,   2.112,  0.773,   0.327, 0.246,  0.000, 0.000,/USRWHT
103,'GENROU',1 ,  8.96,   0.05,    0.31,   0.05,  23.64,   2.64,   0.146, 0.0608,  0.0969, 0.0608,  0.05,  0.026,  0.000, 0.000,/USRWHT
104,'GENROU',1 ,  8.5,    0.037,   1.24,  0.074,   6.47,  0.647,   1.75,  0.427,   1.72,   0.65,    0.275, 0.22,   0.000, 0.000,/USRWHT
105,'GENROU',1 ,  3.27,   0.032,   0.31,  0.079,  5.047,  0.5047,  2.2,   0.556,   2.112,  0.773,   0.327, 0.246,  0.000, 0.000,/USRWHT
107,'GENROU',1 ,  8.96,   0.05,    0.31,   0.05,  23.64,   2.64,   0.146, 0.0608,  0.0969, 0.0608,  0.05,  0.026,  0.000, 0.000,/USRWHT
110,'GENROU',1 ,  8.5,    0.037,   1.24,  0.074,   6.47,  0.647,   1.75,  0.427,   1.72,   0.65,    0.275, 0.22,   0.000, 0.000,/USRWHT
111,'GENROU',1 ,  3.27,   0.032,   0.31,  0.079,  5.047,  0.5047,  2.2,   0.556,   2.112,  0.773,   0.327, 0.246,  0.000, 0.000,/USRWHT
112,'GENROU',1 ,  3.27,   0.032,   0.31,  0.079,  5.047,  0.5047,  2.2,   0.556,   2.112,  0.773,   0.327, 0.246,  0.000, 0.000,/USRWHT
113,'GENROU',1 ,  8.96,   0.05,    0.31,   0.05,  23.64,   2.64,   0.146, 0.0608,  0.0969, 0.0608,  0.05,  0.026,  0.000, 0.000,/USRWHT
116,'GENROU',1 ,  8.5,    0.037,   1.24,  0.074,   6.47,  0.647,   1.75,  0.427,   1.72,   0.65,    0.275, 0.22,   0.000, 0.000,/USRWHT

1,'IEEET1',1 ,0, 20, 0.2, 6, 0, 1.0, 0.314, 0.063, 0.35, 0, 5.0, 9.28, 3.75, 1.3291,/USRWHT
4,'IEEET1',1 ,0, 20, 0.2, 6, 0, 1.0, 0.314, 0.063, 0.35, 0, 5.0, 9.28, 3.75, 1.3291,/USRWHT
6,'IEEET1',1 ,0, 20, 0.2, 6, 0, 1.0, 0.314, 0.063, 0.35, 0, 5.0, 9.28, 3.75, 1.3291,/USRWHT
8,'IEEET1',1 ,0, 20, 0.2, 6, 0, 1.0, 0.314, 0.063, 0.35, 0, 5.0, 9.28, 3.75, 1.3291,/USRWHT
10,'IEEET1',1 ,0, 20, 0.2, 6, 0, 1.0, 0.314, 0.063, 0.35, 0, 5.0, 9.28, 3.75, 1.3291,/USRWHT
12,'IEEET1',1 ,0, 20, 0.2, 6, 0, 1.0, 0.314, 0.063, 0.35, 0, 5.0, 9.28, 3.75, 1.3291,/USRWHT
15,'IEEET1',1 ,0, 20, 0.2, 6, 0, 1.0, 0.314, 0.063, 0.35, 0, 5.0, 9.28, 3.75, 1.3291,/USRWHT
18,'IEEET1',1 ,0, 20, 0.2, 6, 0, 1.0, 0.314, 0.063, 0.35, 0, 5.0, 9.28, 3.75, 1.3291,/USRWHT
19,'IEEET1',1 ,0, 20, 0.2, 6, 0, 1.0, 0.314, 0.063, 0.35, 0, 5.0, 9.28, 3.75, 1.3291,/USRWHT
24,'IEEET1',1 ,0, 20, 0.2, 6, 0, 1.0, 0.314, 0.063, 0.35, 0, 5.0, 9.28, 3.75, 1.3291,/USRWHT
25,'IEEET1',1 ,0, 20, 0.2, 6, 0, 1.0, 0.314, 0.063, 0.35, 0, 5.0, 9.28, 3.75, 1.3291,/USRWHT
26,'IEEET1',1 ,0, 20, 0.2, 6, 0, 1.0, 0.314, 0.063, 0.35, 0, 5.0, 9.28, 3.75, 1.3291,/USRWHT
27,'IEEET1',1 ,0, 20, 0.2, 6, 0, 1.0, 0.314, 0.063, 0.35, 0, 5.0, 9.28, 3.75, 1.3291,/USRWHT
31,'IEEET1',1 ,0, 20, 0.2, 6, 0, 1.0, 0.314, 0.063, 0.35, 0, 5.0, 9.28, 3.75, 1.3291,/USRWHT
32,'IEEET1',1 ,0, 20, 0.2, 6, 0, 1.0, 0.314, 0.063, 0.35, 0, 5.0, 9.28, 3.75, 1.3291,/USRWHT
34,'IEEET1',1 ,0, 20, 0.2, 6, 0, 1.0, 0.314, 0.063, 0.35, 0, 5.0, 9.28, 3.75, 1.3291,/USRWHT
36,'IEEET1',1 ,0, 20, 0.2, 6, 0, 1.0, 0.314, 0.063, 0.35, 0, 5.0, 9.28, 3.75, 1.3291,/USRWHT
40,'IEEET1',1 ,0, 20, 0.2, 6, 0, 1.0, 0.314, 0.063, 0.35, 0, 5.0, 9.28, 3.75, 1.3291,/USRWHT
42,'IEEET1',1 ,0, 20, 0.2, 6, 0, 1.0, 0.314, 0.063, 0.35, 0, 5.0, 9.28, 3.75, 1.3291,/USRWHT
46,'IEEET1',1 ,0, 20, 0.2, 6, 0, 1.0, 0.314, 0.063, 0.35, 0, 5.0, 9.28, 3.75, 1.3291,/USRWHT
49,'IEEET1',1 ,0, 20, 0.2, 6, 0, 1.0, 0.314, 0.063, 0.35, 0, 5.0, 9.28, 3.75, 1.3291,/USRWHT
54,'IEEET1',1 ,0, 20, 0.2, 6, 0, 1.0, 0.314, 0.063, 0.35, 0, 5.0, 9.28, 3.75, 1.3291,/USRWHT
55,'IEEET1',1 ,0, 20, 0.2, 6, 0, 1.0, 0.314, 0.063, 0.35, 0, 5.0, 9.28, 3.75, 1.3291,/USRWHT
56,'IEEET1',1 ,0, 20, 0.2, 6, 0, 1.0, 0.314, 0.063, 0.35, 0, 5.0, 9.28, 3.75, 1.3291,/USRWHT
59,'IEEET1',1 ,0, 20, 0.2, 6, 0, 1.0, 0.314, 0.063, 0.35, 0, 5.0, 9.28, 3.75, 1.3291,/USRWHT
61,'IEEET1',1 ,0, 20, 0.2, 6, 0, 1.0, 0.314, 0.063, 0.35, 0, 5.0, 9.28, 3.75, 1.3291,/USRWHT
62,'IEEET1',1 ,0, 20, 0.2, 6, 0, 1.0, 0.314, 0.063, 0.35, 0, 5.0, 9.28, 3.75, 1.3291,/USRWHT
65,'IEEET1',1 ,0, 20, 0.2, 6, 0, 1.0, 0.314, 0.063, 0.35, 0, 5.0, 9.28, 3.75, 1.3291,/USRWHT
66,'IEEET1',1 ,0, 20, 0.2, 6, 0, 1.0, 0.314, 0.063, 0.35, 0, 5.0, 9.28, 3.75, 1.3291,/USRWHT
69,'IEEET1',1 ,0, 20, 0.2, 6, 0, 1.0, 0.314, 0.063, 0.35, 0, 5.0, 9.28, 3.75, 1.3291,/USRWHT
70,'IEEET1',1 ,0, 20, 0.2, 6, 0, 1.0, 0.314, 0.063, 0.35, 0, 5.0, 9.28, 3.75, 1.3291,/USRWHT
72,'IEEET1',1 ,0, 20, 0.2, 6, 0, 1.0, 0.314, 0.063, 0.35, 0, 5.0, 9.28, 3.75, 1.3291,/USRWHT
73,'IEEET1',1 ,0, 20, 0.2, 6, 0, 1.0, 0.314, 0.063, 0.35, 0, 5.0, 9.28, 3.75, 1.3291,/USRWHT
74,'IEEET1',1 ,0, 20, 0.2, 6, 0, 1.0, 0.314, 0.063, 0.35, 0, 5.0, 9.28, 3.75, 1.3291,/USRWHT
76,'IEEET1',1 ,0, 20, 0.2, 6, 0, 1.0, 0.314, 0.063, 0.35, 0, 5.0, 9.28, 3.75, 1.3291,/USRWHT
77,'IEEET1',1 ,0, 20, 0.2, 6, 0, 1.0, 0.314, 0.063, 0.35, 0, 5.0, 9.28, 3.75, 1.3291,/USRWHT
80,'IEEET1',1 ,0, 20, 0.2, 6, 0, 1.0, 0.314, 0.063, 0.35, 0, 5.0, 9.28, 3.75, 1.3291,/USRWHT
85,'IEEET1',1 ,0, 20, 0.2, 6, 0, 1.0, 0.314, 0.063, 0.35, 0, 5.0, 9.28, 3.75, 1.3291,/USRWHT
87,'IEEET1',1 ,0, 20, 0.2, 6, 0, 1.0, 0.314, 0.063, 0.35, 0, 5.0, 9.28, 3.75, 1.3291,/USRWHT
89,'IEEET1',1 ,0, 20, 0.2, 6, 0, 1.0, 0.314, 0.063, 0.35, 0, 5.0, 9.28, 3.75, 1.3291,/USRWHT
90,'IEEET1',1 ,0, 20, 0.2, 6, 0, 1.0, 0.314, 0.063, 0.35, 0, 5.0, 9.28, 3.75, 1.3291,/USRWHT
91,'IEEET1',1 ,0, 20, 0.2, 6, 0, 1.0, 0.314, 0.063, 0.35, 0, 5.0, 9.28, 3.75, 1.3291,/USRWHT
92,'IEEET1',1 ,0, 20, 0.2, 6, 0, 1.0, 0.314, 0.063, 0.35, 0, 5.0, 9.28, 3.75, 1.3291,/USRWHT
99,'IEEET1',1 ,0, 20, 0.2, 6, 0, 1.0, 0.314, 0.063, 0.35, 0, 5.0, 9.28, 3.75, 1.3291,/USRWHT
100,'IEEET1',1 ,0, 20, 0.2, 6, 0, 1.0, 0.314, 0.063, 0.35, 0, 5.0, 9.28, 3.75, 1.3291,/USRWHT
103,'IEEET1',1 ,0, 20, 0.2, 6, 0, 1.0, 0.314, 0.063, 0.35, 0, 5.0, 9.28, 3.75, 1.3291,/USRWHT
104,'IEEET1',1 ,0, 20, 0.2, 6, 0, 1.0, 0.314, 0.063, 0.35, 0, 5.0, 9.28, 3.75, 1.3291,/USRWHT
105,'IEEET1',1 ,0, 20, 0.2, 6, 0, 1.0, 0.314, 0.063, 0.35, 0, 5.0, 9.28, 3.75, 1.3291,/USRWHT
107,'IEEET1',1 ,0, 20, 0.2, 6, 0, 1.0, 0.314, 0.063, 0.35, 0, 5.0, 9.28, 3.75, 1.3291,/USRWHT
110,'IEEET1',1 ,0, 20, 0.2, 6, 0, 1.0, 0.314, 0.063, 0.35, 0, 5.0, 9.28, 3.75, 1.3291,/USRWHT
111,'IEEET1',1 ,0, 20, 0.2, 6, 0, 1.0, 0.314, 0.063, 0.35, 0, 5.0, 9.28, 3.75, 1.3291,/USRWHT
112,'IEEET1',1 ,0, 20, 0.2, 6, 0, 1.0, 0.314, 0.063, 0.35, 0, 5.0, 9.28, 3.75, 1.3291,/USRWHT
113,'IEEET1',1 ,0, 20, 0.2, 6, 0, 1.0, 0.314, 0.063, 0.35, 0, 5.0, 9.28, 3.75, 1.3291,/USRWHT
116,'IEEET1',1 ,0, 20, 0.2, 6, 0, 1.0, 0.314, 0.063, 0.35, 0, 5.0, 9.28, 3.75, 1.3291,/USRWHT
